data_PCN-224-Nometal

_audit_creation_method RASPA-1.0
_audit_creation_date 2020-6-9
_audit_author_name 'sp1709'

_cell_length_a    38.512
_cell_length_b    38.512
_cell_length_c    38.512
_cell_angle_alpha 90
_cell_angle_beta  90
_cell_angle_gamma 90
_cell_volume      57120

_symmetry_cell_setting          cubic
_symmetry_space_group_name_Hall 'P 1'
_symmetry_space_group_name_H-M  'P 1'
_symmetry_Int_Tables_number     1

_symmetry_equiv_pos_as_xyz 'x,y,z'

loop_
_atom_site_label
_atom_site_type_symbol
_atom_site_fract_x
_atom_site_fract_y
_atom_site_fract_z
_atom_site_charge
Zr1      Zr     0.207106000000     0.271576000000     0.207106000000     0          
O1       O      0.222210000000     0.314740000000     0.172480000000     0          
O2       O      0.153440000000     0.249050000000     0.200990000000     0          
O3       O      0.196300000000     0.258980000000     0.258980000000     0          
O4       O      0.217940000000     0.217940000000     0.217940000000     0          
N1       N      0.249900000000     0.500000000000     0.050580000000     0          
C1       C      0.250000000000     0.331670000000     0.168330000000     0          
C2       C      0.250000000000     0.359000000000     0.141000000000     0          
C3       C      0.220180000000     0.366540000000     0.123480000000     0          
H3       H      0.199300000000     0.354500000000     0.128800000000     0          
C4       C      0.220480000000     0.392120000000     0.097570000000     0          
H4       H      0.199800000000     0.397000000000     0.085100000000     0          
C5       C      0.250000000000     0.410030000000     0.089970000000     0          
C6       C      0.250000000000     0.437340000000     0.062660000000     0          
C7       C      0.248530000000     0.471630000000     0.072180000000     0          
C8       C      0.246540000000     0.482940000000     0.107870000000     0          
H8       H      0.245400000000     0.468400000000     0.127700000000     0          
Zr1      Zr     0.728424000000     0.207106000000     0.207106000000     0          
O1       O      0.685260000000     0.222210000000     0.172480000000     0          
O2       O      0.750950000000     0.153440000000     0.200990000000     0          
O3       O      0.741020000000     0.196300000000     0.258980000000     0          
O4       O      0.782060000000     0.217940000000     0.217940000000     0          
N1       N      0.500000000000     0.249900000000     0.050580000000     0          
C1       C      0.668330000000     0.250000000000     0.168330000000     0          
C2       C      0.641000000000     0.250000000000     0.141000000000     0          
C3       C      0.633460000000     0.220180000000     0.123480000000     0          
H3       H      0.645500000000     0.199300000000     0.128800000000     0          
C4       C      0.607880000000     0.220480000000     0.097570000000     0          
H4       H      0.603000000000     0.199800000000     0.085100000000     0          
C5       C      0.589970000000     0.250000000000     0.089970000000     0          
C6       C      0.562660000000     0.250000000000     0.062660000000     0          
C7       C      0.528370000000     0.248530000000     0.072180000000     0          
C8       C      0.517060000000     0.246540000000     0.107870000000     0          
H8       H      0.531600000000     0.245400000000     0.127700000000     0          
Zr1      Zr     0.792894000000     0.728424000000     0.207106000000     0          
O1       O      0.777790000000     0.685260000000     0.172480000000     0          
O2       O      0.846560000000     0.750950000000     0.200990000000     0          
O3       O      0.803700000000     0.741020000000     0.258980000000     0          
O4       O      0.782060000000     0.782060000000     0.217940000000     0          
N1       N      0.750100000000     0.500000000000     0.050580000000     0          
C1       C      0.750000000000     0.668330000000     0.168330000000     0          
C2       C      0.750000000000     0.641000000000     0.141000000000     0          
C3       C      0.779820000000     0.633460000000     0.123480000000     0          
H3       H      0.800700000000     0.645500000000     0.128800000000     0          
C4       C      0.779520000000     0.607880000000     0.097570000000     0          
H4       H      0.800200000000     0.603000000000     0.085100000000     0          
C5       C      0.750000000000     0.589970000000     0.089970000000     0          
C6       C      0.750000000000     0.562660000000     0.062660000000     0          
C7       C      0.751470000000     0.528370000000     0.072180000000     0          
C8       C      0.753460000000     0.517060000000     0.107870000000     0          
H8       H      0.754600000000     0.531600000000     0.127700000000     0          
Zr1      Zr     0.271576000000     0.792894000000     0.207106000000     0          
O1       O      0.314740000000     0.777790000000     0.172480000000     0          
O2       O      0.249050000000     0.846560000000     0.200990000000     0          
O3       O      0.258980000000     0.803700000000     0.258980000000     0          
O4       O      0.217940000000     0.782060000000     0.217940000000     0          
N1       N      0.500000000000     0.750100000000     0.050580000000     0          
C1       C      0.331670000000     0.750000000000     0.168330000000     0          
C2       C      0.359000000000     0.750000000000     0.141000000000     0          
C3       C      0.366540000000     0.779820000000     0.123480000000     0          
H3       H      0.354500000000     0.800700000000     0.128800000000     0          
C4       C      0.392120000000     0.779520000000     0.097570000000     0          
H4       H      0.397000000000     0.800200000000     0.085100000000     0          
C5       C      0.410030000000     0.750000000000     0.089970000000     0          
C6       C      0.437340000000     0.750000000000     0.062660000000     0          
C7       C      0.471630000000     0.751470000000     0.072180000000     0          
C8       C      0.482940000000     0.753460000000     0.107870000000     0          
H8       H      0.468400000000     0.754600000000     0.127700000000     0          
Zr1      Zr     0.207106000000     0.728424000000     0.792894000000     0          
O1       O      0.222210000000     0.685260000000     0.827520000000     0          
O2       O      0.153440000000     0.750950000000     0.799010000000     0          
O3       O      0.196300000000     0.741020000000     0.741020000000     0          
O4       O      0.217940000000     0.782060000000     0.782060000000     0          
N1       N      0.249900000000     0.500000000000     0.949420000000     0          
C1       C      0.250000000000     0.668330000000     0.831670000000     0          
C2       C      0.250000000000     0.641000000000     0.859000000000     0          
C3       C      0.220180000000     0.633460000000     0.876520000000     0          
H3       H      0.199300000000     0.645500000000     0.871200000000     0          
C4       C      0.220480000000     0.607880000000     0.902430000000     0          
H4       H      0.199800000000     0.603000000000     0.914900000000     0          
C5       C      0.250000000000     0.589970000000     0.910030000000     0          
C6       C      0.250000000000     0.562660000000     0.937340000000     0          
C7       C      0.248530000000     0.528370000000     0.927820000000     0          
C8       C      0.246540000000     0.517060000000     0.892130000000     0          
H8       H      0.245400000000     0.531600000000     0.872300000000     0          
Zr1      Zr     0.271576000000     0.207106000000     0.792894000000     0          
O1       O      0.314740000000     0.222210000000     0.827520000000     0          
O2       O      0.249050000000     0.153440000000     0.799010000000     0          
O3       O      0.258980000000     0.196300000000     0.741020000000     0          
O4       O      0.217940000000     0.217940000000     0.782060000000     0          
N1       N      0.500000000000     0.249900000000     0.949420000000     0          
C1       C      0.331670000000     0.250000000000     0.831670000000     0          
C2       C      0.359000000000     0.250000000000     0.859000000000     0          
C3       C      0.366540000000     0.220180000000     0.876520000000     0          
H3       H      0.354500000000     0.199300000000     0.871200000000     0          
C4       C      0.392120000000     0.220480000000     0.902430000000     0          
H4       H      0.397000000000     0.199800000000     0.914900000000     0          
C5       C      0.410030000000     0.250000000000     0.910030000000     0          
C6       C      0.437340000000     0.250000000000     0.937340000000     0          
C7       C      0.471630000000     0.248530000000     0.927820000000     0          
C8       C      0.482940000000     0.246540000000     0.892130000000     0          
H8       H      0.468400000000     0.245400000000     0.872300000000     0          
Zr1      Zr     0.792894000000     0.271576000000     0.792894000000     0          
O1       O      0.777790000000     0.314740000000     0.827520000000     0          
O2       O      0.846560000000     0.249050000000     0.799010000000     0          
O3       O      0.803700000000     0.258980000000     0.741020000000     0          
O4       O      0.782060000000     0.217940000000     0.782060000000     0          
N1       N      0.750100000000     0.500000000000     0.949420000000     0          
C1       C      0.750000000000     0.331670000000     0.831670000000     0          
C2       C      0.750000000000     0.359000000000     0.859000000000     0          
C3       C      0.779820000000     0.366540000000     0.876520000000     0          
H3       H      0.800700000000     0.354500000000     0.871200000000     0          
C4       C      0.779520000000     0.392120000000     0.902430000000     0          
H4       H      0.800200000000     0.397000000000     0.914900000000     0          
C5       C      0.750000000000     0.410030000000     0.910030000000     0          
C6       C      0.750000000000     0.437340000000     0.937340000000     0          
C7       C      0.751470000000     0.471630000000     0.927820000000     0          
C8       C      0.753460000000     0.482940000000     0.892130000000     0          
H8       H      0.754600000000     0.468400000000     0.872300000000     0          
Zr1      Zr     0.728424000000     0.792894000000     0.792894000000     0          
O1       O      0.685260000000     0.777790000000     0.827520000000     0          
O2       O      0.750950000000     0.846560000000     0.799010000000     0          
O3       O      0.741020000000     0.803700000000     0.741020000000     0          
O4       O      0.782060000000     0.782060000000     0.782060000000     0          
N1       N      0.500000000000     0.750100000000     0.949420000000     0          
C1       C      0.668330000000     0.750000000000     0.831670000000     0          
C2       C      0.641000000000     0.750000000000     0.859000000000     0          
C3       C      0.633460000000     0.779820000000     0.876520000000     0          
H3       H      0.645500000000     0.800700000000     0.871200000000     0          
C4       C      0.607880000000     0.779520000000     0.902430000000     0          
H4       H      0.603000000000     0.800200000000     0.914900000000     0          
C5       C      0.589970000000     0.750000000000     0.910030000000     0          
C6       C      0.562660000000     0.750000000000     0.937340000000     0          
C7       C      0.528370000000     0.751470000000     0.927820000000     0          
C8       C      0.517060000000     0.753460000000     0.892130000000     0          
H8       H      0.531600000000     0.754600000000     0.872300000000     0          
Zr1      Zr     0.207106000000     0.207106000000     0.271576000000     0          
O1       O      0.172480000000     0.222210000000     0.314740000000     0          
O2       O      0.200990000000     0.153440000000     0.249050000000     0          
O3       O      0.258980000000     0.196300000000     0.258980000000     0          
N1       N      0.050580000000     0.249900000000     0.500000000000     0          
C1       C      0.168330000000     0.250000000000     0.331670000000     0          
C2       C      0.141000000000     0.250000000000     0.359000000000     0          
C3       C      0.123480000000     0.220180000000     0.366540000000     0          
H3       H      0.128800000000     0.199300000000     0.354500000000     0          
C4       C      0.097570000000     0.220480000000     0.392120000000     0          
H4       H      0.085100000000     0.199800000000     0.397000000000     0          
C5       C      0.089970000000     0.250000000000     0.410030000000     0          
C6       C      0.062660000000     0.250000000000     0.437340000000     0          
C7       C      0.072180000000     0.248530000000     0.471630000000     0          
C8       C      0.107870000000     0.246540000000     0.482940000000     0          
H8       H      0.127700000000     0.245400000000     0.468400000000     0          
Zr1      Zr     0.792894000000     0.207106000000     0.271576000000     0          
O1       O      0.777790000000     0.172480000000     0.314740000000     0          
O2       O      0.846560000000     0.200990000000     0.249050000000     0          
O3       O      0.803700000000     0.258980000000     0.258980000000     0          
N1       N      0.750100000000     0.050580000000     0.500000000000     0          
C1       C      0.750000000000     0.168330000000     0.331670000000     0          
C2       C      0.750000000000     0.141000000000     0.359000000000     0          
C3       C      0.779820000000     0.123480000000     0.366540000000     0          
H3       H      0.800700000000     0.128800000000     0.354500000000     0          
C4       C      0.779520000000     0.097570000000     0.392120000000     0          
H4       H      0.800200000000     0.085100000000     0.397000000000     0          
C5       C      0.750000000000     0.089970000000     0.410030000000     0          
C6       C      0.750000000000     0.062660000000     0.437340000000     0          
C7       C      0.751470000000     0.072180000000     0.471630000000     0          
C8       C      0.753460000000     0.107870000000     0.482940000000     0          
H8       H      0.754600000000     0.127700000000     0.468400000000     0          
Zr1      Zr     0.792894000000     0.792894000000     0.271576000000     0          
O1       O      0.827520000000     0.777790000000     0.314740000000     0          
O2       O      0.799010000000     0.846560000000     0.249050000000     0          
O3       O      0.741020000000     0.803700000000     0.258980000000     0          
N1       N      0.949420000000     0.750100000000     0.500000000000     0          
C1       C      0.831670000000     0.750000000000     0.331670000000     0          
C2       C      0.859000000000     0.750000000000     0.359000000000     0          
C3       C      0.876520000000     0.779820000000     0.366540000000     0          
H3       H      0.871200000000     0.800700000000     0.354500000000     0          
C4       C      0.902430000000     0.779520000000     0.392120000000     0          
H4       H      0.914900000000     0.800200000000     0.397000000000     0          
C5       C      0.910030000000     0.750000000000     0.410030000000     0          
C6       C      0.937340000000     0.750000000000     0.437340000000     0          
C7       C      0.927820000000     0.751470000000     0.471630000000     0          
C8       C      0.892130000000     0.753460000000     0.482940000000     0          
H8       H      0.872300000000     0.754600000000     0.468400000000     0          
Zr1      Zr     0.207106000000     0.792894000000     0.271576000000     0          
O1       O      0.222210000000     0.827520000000     0.314740000000     0          
O2       O      0.153440000000     0.799010000000     0.249050000000     0          
O3       O      0.196300000000     0.741020000000     0.258980000000     0          
N1       N      0.249900000000     0.949420000000     0.500000000000     0          
C1       C      0.250000000000     0.831670000000     0.331670000000     0          
C2       C      0.250000000000     0.859000000000     0.359000000000     0          
C3       C      0.220180000000     0.876520000000     0.366540000000     0          
H3       H      0.199300000000     0.871200000000     0.354500000000     0          
C4       C      0.220480000000     0.902430000000     0.392120000000     0          
H4       H      0.199800000000     0.914900000000     0.397000000000     0          
C5       C      0.250000000000     0.910030000000     0.410030000000     0          
C6       C      0.250000000000     0.937340000000     0.437340000000     0          
C7       C      0.248530000000     0.927820000000     0.471630000000     0          
C8       C      0.246540000000     0.892130000000     0.482940000000     0          
H8       H      0.245400000000     0.872300000000     0.468400000000     0          
Zr1      Zr     0.207106000000     0.792894000000     0.728424000000     0          
O1       O      0.172480000000     0.777790000000     0.685260000000     0          
O2       O      0.200990000000     0.846560000000     0.750950000000     0          
O3       O      0.258980000000     0.803700000000     0.741020000000     0          
N1       N      0.050580000000     0.750100000000     0.500000000000     0          
C1       C      0.168330000000     0.750000000000     0.668330000000     0          
C2       C      0.141000000000     0.750000000000     0.641000000000     0          
C3       C      0.123480000000     0.779820000000     0.633460000000     0          
H3       H      0.128800000000     0.800700000000     0.645500000000     0          
C4       C      0.097570000000     0.779520000000     0.607880000000     0          
H4       H      0.085100000000     0.800200000000     0.603000000000     0          
C5       C      0.089970000000     0.750000000000     0.589970000000     0          
C6       C      0.062660000000     0.750000000000     0.562660000000     0          
C7       C      0.072180000000     0.751470000000     0.528370000000     0          
C8       C      0.107870000000     0.753460000000     0.517060000000     0          
H8       H      0.127700000000     0.754600000000     0.531600000000     0          
Zr1      Zr     0.207106000000     0.207106000000     0.728424000000     0          
O1       O      0.222210000000     0.172480000000     0.685260000000     0          
O2       O      0.153440000000     0.200990000000     0.750950000000     0          
O3       O      0.196300000000     0.258980000000     0.741020000000     0          
N1       N      0.249900000000     0.050580000000     0.500000000000     0          
C1       C      0.250000000000     0.168330000000     0.668330000000     0          
C2       C      0.250000000000     0.141000000000     0.641000000000     0          
C3       C      0.220180000000     0.123480000000     0.633460000000     0          
H3       H      0.199300000000     0.128800000000     0.645500000000     0          
C4       C      0.220480000000     0.097570000000     0.607880000000     0          
H4       H      0.199800000000     0.085100000000     0.603000000000     0          
C5       C      0.250000000000     0.089970000000     0.589970000000     0          
C6       C      0.250000000000     0.062660000000     0.562660000000     0          
C7       C      0.248530000000     0.072180000000     0.528370000000     0          
C8       C      0.246540000000     0.107870000000     0.517060000000     0          
H8       H      0.245400000000     0.127700000000     0.531600000000     0          
Zr1      Zr     0.792894000000     0.207106000000     0.728424000000     0          
O1       O      0.827520000000     0.222210000000     0.685260000000     0          
O2       O      0.799010000000     0.153440000000     0.750950000000     0          
O3       O      0.741020000000     0.196300000000     0.741020000000     0          
N1       N      0.949420000000     0.249900000000     0.500000000000     0          
C1       C      0.831670000000     0.250000000000     0.668330000000     0          
C2       C      0.859000000000     0.250000000000     0.641000000000     0          
C3       C      0.876520000000     0.220180000000     0.633460000000     0          
H3       H      0.871200000000     0.199300000000     0.645500000000     0          
C4       C      0.902430000000     0.220480000000     0.607880000000     0          
H4       H      0.914900000000     0.199800000000     0.603000000000     0          
C5       C      0.910030000000     0.250000000000     0.589970000000     0          
C6       C      0.937340000000     0.250000000000     0.562660000000     0          
C7       C      0.927820000000     0.248530000000     0.528370000000     0          
C8       C      0.892130000000     0.246540000000     0.517060000000     0          
H8       H      0.872300000000     0.245400000000     0.531600000000     0          
Zr1      Zr     0.792894000000     0.792894000000     0.728424000000     0          
O1       O      0.777790000000     0.827520000000     0.685260000000     0          
O2       O      0.846560000000     0.799010000000     0.750950000000     0          
O3       O      0.803700000000     0.741020000000     0.741020000000     0          
N1       N      0.750100000000     0.949420000000     0.500000000000     0          
C1       C      0.750000000000     0.831670000000     0.668330000000     0          
C2       C      0.750000000000     0.859000000000     0.641000000000     0          
C3       C      0.779820000000     0.876520000000     0.633460000000     0          
H3       H      0.800700000000     0.871200000000     0.645500000000     0          
C4       C      0.779520000000     0.902430000000     0.607880000000     0          
H4       H      0.800200000000     0.914900000000     0.603000000000     0          
C5       C      0.750000000000     0.910030000000     0.589970000000     0          
C6       C      0.750000000000     0.937340000000     0.562660000000     0          
C7       C      0.751470000000     0.927820000000     0.528370000000     0          
C8       C      0.753460000000     0.892130000000     0.517060000000     0          
H8       H      0.754600000000     0.872300000000     0.531600000000     0          
Zr1      Zr     0.271576000000     0.207106000000     0.207106000000     0          
O1       O      0.314740000000     0.172480000000     0.222210000000     0          
O2       O      0.249050000000     0.200990000000     0.153440000000     0          
O3       O      0.258980000000     0.258980000000     0.196300000000     0          
N1       N      0.500000000000     0.050580000000     0.249900000000     0          
C1       C      0.331670000000     0.168330000000     0.250000000000     0          
C2       C      0.359000000000     0.141000000000     0.250000000000     0          
C3       C      0.366540000000     0.123480000000     0.220180000000     0          
H3       H      0.354500000000     0.128800000000     0.199300000000     0          
C4       C      0.392120000000     0.097570000000     0.220480000000     0          
H4       H      0.397000000000     0.085100000000     0.199800000000     0          
C5       C      0.410030000000     0.089970000000     0.250000000000     0          
C6       C      0.437340000000     0.062660000000     0.250000000000     0          
C7       C      0.471630000000     0.072180000000     0.248530000000     0          
C8       C      0.482940000000     0.107870000000     0.246540000000     0          
H8       H      0.468400000000     0.127700000000     0.245400000000     0          
Zr1      Zr     0.271576000000     0.792894000000     0.792894000000     0          
O1       O      0.314740000000     0.827520000000     0.777790000000     0          
O2       O      0.249050000000     0.799010000000     0.846560000000     0          
O3       O      0.258980000000     0.741020000000     0.803700000000     0          
N1       N      0.500000000000     0.949420000000     0.750100000000     0          
C1       C      0.331670000000     0.831670000000     0.750000000000     0          
C2       C      0.359000000000     0.859000000000     0.750000000000     0          
C3       C      0.366540000000     0.876520000000     0.779820000000     0          
H3       H      0.354500000000     0.871200000000     0.800700000000     0          
C4       C      0.392120000000     0.902430000000     0.779520000000     0          
H4       H      0.397000000000     0.914900000000     0.800200000000     0          
C5       C      0.410030000000     0.910030000000     0.750000000000     0          
C6       C      0.437340000000     0.937340000000     0.750000000000     0          
C7       C      0.471630000000     0.927820000000     0.751470000000     0          
C8       C      0.482940000000     0.892130000000     0.753460000000     0          
H8       H      0.468400000000     0.872300000000     0.754600000000     0          
Zr1      Zr     0.207106000000     0.271576000000     0.792894000000     0          
O1       O      0.172480000000     0.314740000000     0.777790000000     0          
O2       O      0.200990000000     0.249050000000     0.846560000000     0          
O3       O      0.258980000000     0.258980000000     0.803700000000     0          
N1       N      0.050580000000     0.500000000000     0.750100000000     0          
C1       C      0.168330000000     0.331670000000     0.750000000000     0          
C2       C      0.141000000000     0.359000000000     0.750000000000     0          
C3       C      0.123480000000     0.366540000000     0.779820000000     0          
H3       H      0.128800000000     0.354500000000     0.800700000000     0          
C4       C      0.097570000000     0.392120000000     0.779520000000     0          
H4       H      0.085100000000     0.397000000000     0.800200000000     0          
C5       C      0.089970000000     0.410030000000     0.750000000000     0          
C6       C      0.062660000000     0.437340000000     0.750000000000     0          
C7       C      0.072180000000     0.471630000000     0.751470000000     0          
C8       C      0.107870000000     0.482940000000     0.753460000000     0          
H8       H      0.127700000000     0.468400000000     0.754600000000     0          
Zr1      Zr     0.728424000000     0.207106000000     0.792894000000     0          
O1       O      0.685260000000     0.172480000000     0.777790000000     0          
O2       O      0.750950000000     0.200990000000     0.846560000000     0          
O3       O      0.741020000000     0.258980000000     0.803700000000     0          
N1       N      0.500000000000     0.050580000000     0.750100000000     0          
C1       C      0.668330000000     0.168330000000     0.750000000000     0          
C2       C      0.641000000000     0.141000000000     0.750000000000     0          
C3       C      0.633460000000     0.123480000000     0.779820000000     0          
H3       H      0.645500000000     0.128800000000     0.800700000000     0          
C4       C      0.607880000000     0.097570000000     0.779520000000     0          
H4       H      0.603000000000     0.085100000000     0.800200000000     0          
C5       C      0.589970000000     0.089970000000     0.750000000000     0          
C6       C      0.562660000000     0.062660000000     0.750000000000     0          
C7       C      0.528370000000     0.072180000000     0.751470000000     0          
C8       C      0.517060000000     0.107870000000     0.753460000000     0          
H8       H      0.531600000000     0.127700000000     0.754600000000     0          
Zr1      Zr     0.792894000000     0.728424000000     0.792894000000     0          
O1       O      0.827520000000     0.685260000000     0.777790000000     0          
O2       O      0.799010000000     0.750950000000     0.846560000000     0          
O3       O      0.741020000000     0.741020000000     0.803700000000     0          
N1       N      0.949420000000     0.500000000000     0.750100000000     0          
C1       C      0.831670000000     0.668330000000     0.750000000000     0          
C2       C      0.859000000000     0.641000000000     0.750000000000     0          
C3       C      0.876520000000     0.633460000000     0.779820000000     0          
H3       H      0.871200000000     0.645500000000     0.800700000000     0          
C4       C      0.902430000000     0.607880000000     0.779520000000     0          
H4       H      0.914900000000     0.603000000000     0.800200000000     0          
C5       C      0.910030000000     0.589970000000     0.750000000000     0          
C6       C      0.937340000000     0.562660000000     0.750000000000     0          
C7       C      0.927820000000     0.528370000000     0.751470000000     0          
C8       C      0.892130000000     0.517060000000     0.753460000000     0          
H8       H      0.872300000000     0.531600000000     0.754600000000     0          
Zr1      Zr     0.728424000000     0.792894000000     0.207106000000     0          
O1       O      0.685260000000     0.827520000000     0.222210000000     0          
O2       O      0.750950000000     0.799010000000     0.153440000000     0          
O3       O      0.741020000000     0.741020000000     0.196300000000     0          
N1       N      0.500000000000     0.949420000000     0.249900000000     0          
C1       C      0.668330000000     0.831670000000     0.250000000000     0          
C2       C      0.641000000000     0.859000000000     0.250000000000     0          
C3       C      0.633460000000     0.876520000000     0.220180000000     0          
H3       H      0.645500000000     0.871200000000     0.199300000000     0          
C4       C      0.607880000000     0.902430000000     0.220480000000     0          
H4       H      0.603000000000     0.914900000000     0.199800000000     0          
C5       C      0.589970000000     0.910030000000     0.250000000000     0          
C6       C      0.562660000000     0.937340000000     0.250000000000     0          
C7       C      0.528370000000     0.927820000000     0.248530000000     0          
C8       C      0.517060000000     0.892130000000     0.246540000000     0          
H8       H      0.531600000000     0.872300000000     0.245400000000     0          
Zr1      Zr     0.207106000000     0.728424000000     0.207106000000     0          
O1       O      0.172480000000     0.685260000000     0.222210000000     0          
O2       O      0.200990000000     0.750950000000     0.153440000000     0          
O3       O      0.258980000000     0.741020000000     0.196300000000     0          
N1       N      0.050580000000     0.500000000000     0.249900000000     0          
C1       C      0.168330000000     0.668330000000     0.250000000000     0          
C2       C      0.141000000000     0.641000000000     0.250000000000     0          
C3       C      0.123480000000     0.633460000000     0.220180000000     0          
H3       H      0.128800000000     0.645500000000     0.199300000000     0          
C4       C      0.097570000000     0.607880000000     0.220480000000     0          
H4       H      0.085100000000     0.603000000000     0.199800000000     0          
C5       C      0.089970000000     0.589970000000     0.250000000000     0          
C6       C      0.062660000000     0.562660000000     0.250000000000     0          
C7       C      0.072180000000     0.528370000000     0.248530000000     0          
C8       C      0.107870000000     0.517060000000     0.246540000000     0          
H8       H      0.127700000000     0.531600000000     0.245400000000     0          
Zr1      Zr     0.792894000000     0.271576000000     0.207106000000     0          
O1       O      0.827520000000     0.314740000000     0.222210000000     0          
O2       O      0.799010000000     0.249050000000     0.153440000000     0          
O3       O      0.741020000000     0.258980000000     0.196300000000     0          
N1       N      0.949420000000     0.500000000000     0.249900000000     0          
C1       C      0.831670000000     0.331670000000     0.250000000000     0          
C2       C      0.859000000000     0.359000000000     0.250000000000     0          
C3       C      0.876520000000     0.366540000000     0.220180000000     0          
H3       H      0.871200000000     0.354500000000     0.199300000000     0          
C4       C      0.902430000000     0.392120000000     0.220480000000     0          
H4       H      0.914900000000     0.397000000000     0.199800000000     0          
C5       C      0.910030000000     0.410030000000     0.250000000000     0          
C6       C      0.937340000000     0.437340000000     0.250000000000     0          
C7       C      0.927820000000     0.471630000000     0.248530000000     0          
C8       C      0.892130000000     0.482940000000     0.246540000000     0          
H8       H      0.872300000000     0.468400000000     0.245400000000     0          
O1       O      0.777790000000     0.685260000000     0.827520000000     0          
O2       O      0.846560000000     0.750950000000     0.799010000000     0          
C1       C      0.750000000000     0.668330000000     0.831670000000     0          
C2       C      0.750000000000     0.641000000000     0.859000000000     0          
C3       C      0.779820000000     0.633460000000     0.876520000000     0          
H3       H      0.800700000000     0.645500000000     0.871200000000     0          
C4       C      0.779520000000     0.607880000000     0.902430000000     0          
H4       H      0.800200000000     0.603000000000     0.914900000000     0          
C5       C      0.750000000000     0.589970000000     0.910030000000     0          
C6       C      0.750000000000     0.562660000000     0.937340000000     0          
C7       C      0.751470000000     0.528370000000     0.927820000000     0          
C8       C      0.753460000000     0.517060000000     0.892130000000     0          
H8       H      0.754600000000     0.531600000000     0.872300000000     0          
O1       O      0.314740000000     0.777790000000     0.827520000000     0          
O2       O      0.249050000000     0.846560000000     0.799010000000     0          
C1       C      0.331670000000     0.750000000000     0.831670000000     0          
C2       C      0.359000000000     0.750000000000     0.859000000000     0          
C3       C      0.366540000000     0.779820000000     0.876520000000     0          
H3       H      0.354500000000     0.800700000000     0.871200000000     0          
C4       C      0.392120000000     0.779520000000     0.902430000000     0          
H4       H      0.397000000000     0.800200000000     0.914900000000     0          
C5       C      0.410030000000     0.750000000000     0.910030000000     0          
C6       C      0.437340000000     0.750000000000     0.937340000000     0          
C7       C      0.471630000000     0.751470000000     0.927820000000     0          
C8       C      0.482940000000     0.753460000000     0.892130000000     0          
H8       H      0.468400000000     0.754600000000     0.872300000000     0          
O1       O      0.222210000000     0.314740000000     0.827520000000     0          
O2       O      0.153440000000     0.249050000000     0.799010000000     0          
C1       C      0.250000000000     0.331670000000     0.831670000000     0          
C2       C      0.250000000000     0.359000000000     0.859000000000     0          
C3       C      0.220180000000     0.366540000000     0.876520000000     0          
H3       H      0.199300000000     0.354500000000     0.871200000000     0          
C4       C      0.220480000000     0.392120000000     0.902430000000     0          
H4       H      0.199800000000     0.397000000000     0.914900000000     0          
C5       C      0.250000000000     0.410030000000     0.910030000000     0          
C6       C      0.250000000000     0.437340000000     0.937340000000     0          
C7       C      0.248530000000     0.471630000000     0.927820000000     0          
C8       C      0.246540000000     0.482940000000     0.892130000000     0          
H8       H      0.245400000000     0.468400000000     0.872300000000     0          
O1       O      0.685260000000     0.222210000000     0.827520000000     0          
O2       O      0.750950000000     0.153440000000     0.799010000000     0          
C1       C      0.668330000000     0.250000000000     0.831670000000     0          
C2       C      0.641000000000     0.250000000000     0.859000000000     0          
C3       C      0.633460000000     0.220180000000     0.876520000000     0          
H3       H      0.645500000000     0.199300000000     0.871200000000     0          
C4       C      0.607880000000     0.220480000000     0.902430000000     0          
H4       H      0.603000000000     0.199800000000     0.914900000000     0          
C5       C      0.589970000000     0.250000000000     0.910030000000     0          
C6       C      0.562660000000     0.250000000000     0.937340000000     0          
C7       C      0.528370000000     0.248530000000     0.927820000000     0          
C8       C      0.517060000000     0.246540000000     0.892130000000     0          
H8       H      0.531600000000     0.245400000000     0.872300000000     0          
O1       O      0.777790000000     0.314740000000     0.172480000000     0          
O2       O      0.846560000000     0.249050000000     0.200990000000     0          
C1       C      0.750000000000     0.331670000000     0.168330000000     0          
C2       C      0.750000000000     0.359000000000     0.141000000000     0          
C3       C      0.779820000000     0.366540000000     0.123480000000     0          
H3       H      0.800700000000     0.354500000000     0.128800000000     0          
C4       C      0.779520000000     0.392120000000     0.097570000000     0          
H4       H      0.800200000000     0.397000000000     0.085100000000     0          
C5       C      0.750000000000     0.410030000000     0.089970000000     0          
C6       C      0.750000000000     0.437340000000     0.062660000000     0          
C7       C      0.751470000000     0.471630000000     0.072180000000     0          
C8       C      0.753460000000     0.482940000000     0.107870000000     0          
H8       H      0.754600000000     0.468400000000     0.127700000000     0          
O1       O      0.685260000000     0.777790000000     0.172480000000     0          
O2       O      0.750950000000     0.846560000000     0.200990000000     0          
C1       C      0.668330000000     0.750000000000     0.168330000000     0          
C2       C      0.641000000000     0.750000000000     0.141000000000     0          
C3       C      0.633460000000     0.779820000000     0.123480000000     0          
H3       H      0.645500000000     0.800700000000     0.128800000000     0          
C4       C      0.607880000000     0.779520000000     0.097570000000     0          
H4       H      0.603000000000     0.800200000000     0.085100000000     0          
C5       C      0.589970000000     0.750000000000     0.089970000000     0          
C6       C      0.562660000000     0.750000000000     0.062660000000     0          
C7       C      0.528370000000     0.751470000000     0.072180000000     0          
C8       C      0.517060000000     0.753460000000     0.107870000000     0          
H8       H      0.531600000000     0.754600000000     0.127700000000     0          
O1       O      0.222210000000     0.685260000000     0.172480000000     0          
O2       O      0.153440000000     0.750950000000     0.200990000000     0          
C1       C      0.250000000000     0.668330000000     0.168330000000     0          
C2       C      0.250000000000     0.641000000000     0.141000000000     0          
C3       C      0.220180000000     0.633460000000     0.123480000000     0          
H3       H      0.199300000000     0.645500000000     0.128800000000     0          
C4       C      0.220480000000     0.607880000000     0.097570000000     0          
H4       H      0.199800000000     0.603000000000     0.085100000000     0          
C5       C      0.250000000000     0.589970000000     0.089970000000     0          
C6       C      0.250000000000     0.562660000000     0.062660000000     0          
C7       C      0.248530000000     0.528370000000     0.072180000000     0          
C8       C      0.246540000000     0.517060000000     0.107870000000     0          
H8       H      0.245400000000     0.531600000000     0.127700000000     0          
O1       O      0.314740000000     0.222210000000     0.172480000000     0          
O2       O      0.249050000000     0.153440000000     0.200990000000     0          
C1       C      0.331670000000     0.250000000000     0.168330000000     0          
C2       C      0.359000000000     0.250000000000     0.141000000000     0          
C3       C      0.366540000000     0.220180000000     0.123480000000     0          
H3       H      0.354500000000     0.199300000000     0.128800000000     0          
C4       C      0.392120000000     0.220480000000     0.097570000000     0          
H4       H      0.397000000000     0.199800000000     0.085100000000     0          
C5       C      0.410030000000     0.250000000000     0.089970000000     0          
C6       C      0.437340000000     0.250000000000     0.062660000000     0          
C7       C      0.471630000000     0.248530000000     0.072180000000     0          
C8       C      0.482940000000     0.246540000000     0.107870000000     0          
H8       H      0.468400000000     0.245400000000     0.127700000000     0          
O1       O      0.827520000000     0.777790000000     0.685260000000     0          
O2       O      0.799010000000     0.846560000000     0.750950000000     0          
C1       C      0.831670000000     0.750000000000     0.668330000000     0          
C2       C      0.859000000000     0.750000000000     0.641000000000     0          
C3       C      0.876520000000     0.779820000000     0.633460000000     0          
H3       H      0.871200000000     0.800700000000     0.645500000000     0          
C4       C      0.902430000000     0.779520000000     0.607880000000     0          
H4       H      0.914900000000     0.800200000000     0.603000000000     0          
C5       C      0.910030000000     0.750000000000     0.589970000000     0          
C6       C      0.937340000000     0.750000000000     0.562660000000     0          
C7       C      0.927820000000     0.751470000000     0.528370000000     0          
C8       C      0.892130000000     0.753460000000     0.517060000000     0          
H8       H      0.872300000000     0.754600000000     0.531600000000     0          
O1       O      0.222210000000     0.827520000000     0.685260000000     0          
O2       O      0.153440000000     0.799010000000     0.750950000000     0          
C1       C      0.250000000000     0.831670000000     0.668330000000     0          
C2       C      0.250000000000     0.859000000000     0.641000000000     0          
C3       C      0.220180000000     0.876520000000     0.633460000000     0          
H3       H      0.199300000000     0.871200000000     0.645500000000     0          
C4       C      0.220480000000     0.902430000000     0.607880000000     0          
H4       H      0.199800000000     0.914900000000     0.603000000000     0          
C5       C      0.250000000000     0.910030000000     0.589970000000     0          
C6       C      0.250000000000     0.937340000000     0.562660000000     0          
C7       C      0.248530000000     0.927820000000     0.528370000000     0          
C8       C      0.246540000000     0.892130000000     0.517060000000     0          
H8       H      0.245400000000     0.872300000000     0.531600000000     0          
O1       O      0.172480000000     0.222210000000     0.685260000000     0          
O2       O      0.200990000000     0.153440000000     0.750950000000     0          
C1       C      0.168330000000     0.250000000000     0.668330000000     0          
C2       C      0.141000000000     0.250000000000     0.641000000000     0          
C3       C      0.123480000000     0.220180000000     0.633460000000     0          
H3       H      0.128800000000     0.199300000000     0.645500000000     0          
C4       C      0.097570000000     0.220480000000     0.607880000000     0          
H4       H      0.085100000000     0.199800000000     0.603000000000     0          
C5       C      0.089970000000     0.250000000000     0.589970000000     0          
C6       C      0.062660000000     0.250000000000     0.562660000000     0          
C7       C      0.072180000000     0.248530000000     0.528370000000     0          
C8       C      0.107870000000     0.246540000000     0.517060000000     0          
H8       H      0.127700000000     0.245400000000     0.531600000000     0          
O1       O      0.777790000000     0.172480000000     0.685260000000     0          
O2       O      0.846560000000     0.200990000000     0.750950000000     0          
C1       C      0.750000000000     0.168330000000     0.668330000000     0          
C2       C      0.750000000000     0.141000000000     0.641000000000     0          
C3       C      0.779820000000     0.123480000000     0.633460000000     0          
H3       H      0.800700000000     0.128800000000     0.645500000000     0          
C4       C      0.779520000000     0.097570000000     0.607880000000     0          
H4       H      0.800200000000     0.085100000000     0.603000000000     0          
C5       C      0.750000000000     0.089970000000     0.589970000000     0          
C6       C      0.750000000000     0.062660000000     0.562660000000     0          
C7       C      0.751470000000     0.072180000000     0.528370000000     0          
C8       C      0.753460000000     0.107870000000     0.517060000000     0          
H8       H      0.754600000000     0.127700000000     0.531600000000     0          
O1       O      0.827520000000     0.222210000000     0.314740000000     0          
O2       O      0.799010000000     0.153440000000     0.249050000000     0          
C1       C      0.831670000000     0.250000000000     0.331670000000     0          
C2       C      0.859000000000     0.250000000000     0.359000000000     0          
C3       C      0.876520000000     0.220180000000     0.366540000000     0          
H3       H      0.871200000000     0.199300000000     0.354500000000     0          
C4       C      0.902430000000     0.220480000000     0.392120000000     0          
H4       H      0.914900000000     0.199800000000     0.397000000000     0          
C5       C      0.910030000000     0.250000000000     0.410030000000     0          
C6       C      0.937340000000     0.250000000000     0.437340000000     0          
C7       C      0.927820000000     0.248530000000     0.471630000000     0          
C8       C      0.892130000000     0.246540000000     0.482940000000     0          
H8       H      0.872300000000     0.245400000000     0.468400000000     0          
O1       O      0.777790000000     0.827520000000     0.314740000000     0          
O2       O      0.846560000000     0.799010000000     0.249050000000     0          
C1       C      0.750000000000     0.831670000000     0.331670000000     0          
C2       C      0.750000000000     0.859000000000     0.359000000000     0          
C3       C      0.779820000000     0.876520000000     0.366540000000     0          
H3       H      0.800700000000     0.871200000000     0.354500000000     0          
C4       C      0.779520000000     0.902430000000     0.392120000000     0          
H4       H      0.800200000000     0.914900000000     0.397000000000     0          
C5       C      0.750000000000     0.910030000000     0.410030000000     0          
C6       C      0.750000000000     0.937340000000     0.437340000000     0          
C7       C      0.751470000000     0.927820000000     0.471630000000     0          
C8       C      0.753460000000     0.892130000000     0.482940000000     0          
H8       H      0.754600000000     0.872300000000     0.468400000000     0          
O1       O      0.172480000000     0.777790000000     0.314740000000     0          
O2       O      0.200990000000     0.846560000000     0.249050000000     0          
C1       C      0.168330000000     0.750000000000     0.331670000000     0          
C2       C      0.141000000000     0.750000000000     0.359000000000     0          
C3       C      0.123480000000     0.779820000000     0.366540000000     0          
H3       H      0.128800000000     0.800700000000     0.354500000000     0          
C4       C      0.097570000000     0.779520000000     0.392120000000     0          
H4       H      0.085100000000     0.800200000000     0.397000000000     0          
C5       C      0.089970000000     0.750000000000     0.410030000000     0          
C6       C      0.062660000000     0.750000000000     0.437340000000     0          
C7       C      0.072180000000     0.751470000000     0.471630000000     0          
C8       C      0.107870000000     0.753460000000     0.482940000000     0          
H8       H      0.127700000000     0.754600000000     0.468400000000     0          
O1       O      0.222210000000     0.172480000000     0.314740000000     0          
O2       O      0.153440000000     0.200990000000     0.249050000000     0          
C1       C      0.250000000000     0.168330000000     0.331670000000     0          
C2       C      0.250000000000     0.141000000000     0.359000000000     0          
C3       C      0.220180000000     0.123480000000     0.366540000000     0          
H3       H      0.199300000000     0.128800000000     0.354500000000     0          
C4       C      0.220480000000     0.097570000000     0.392120000000     0          
H4       H      0.199800000000     0.085100000000     0.397000000000     0          
C5       C      0.250000000000     0.089970000000     0.410030000000     0          
C6       C      0.250000000000     0.062660000000     0.437340000000     0          
C7       C      0.248530000000     0.072180000000     0.471630000000     0          
C8       C      0.246540000000     0.107870000000     0.482940000000     0          
H8       H      0.245400000000     0.127700000000     0.468400000000     0          
O1       O      0.685260000000     0.827520000000     0.777790000000     0          
O2       O      0.750950000000     0.799010000000     0.846560000000     0          
C1       C      0.668330000000     0.831670000000     0.750000000000     0          
C2       C      0.641000000000     0.859000000000     0.750000000000     0          
C3       C      0.633460000000     0.876520000000     0.779820000000     0          
H3       H      0.645500000000     0.871200000000     0.800700000000     0          
C4       C      0.607880000000     0.902430000000     0.779520000000     0          
H4       H      0.603000000000     0.914900000000     0.800200000000     0          
C5       C      0.589970000000     0.910030000000     0.750000000000     0          
C6       C      0.562660000000     0.937340000000     0.750000000000     0          
C7       C      0.528370000000     0.927820000000     0.751470000000     0          
C8       C      0.517060000000     0.892130000000     0.753460000000     0          
H8       H      0.531600000000     0.872300000000     0.754600000000     0          
O1       O      0.685260000000     0.172480000000     0.222210000000     0          
O2       O      0.750950000000     0.200990000000     0.153440000000     0          
C1       C      0.668330000000     0.168330000000     0.250000000000     0          
C2       C      0.641000000000     0.141000000000     0.250000000000     0          
C3       C      0.633460000000     0.123480000000     0.220180000000     0          
H3       H      0.645500000000     0.128800000000     0.199300000000     0          
C4       C      0.607880000000     0.097570000000     0.220480000000     0          
H4       H      0.603000000000     0.085100000000     0.199800000000     0          
C5       C      0.589970000000     0.089970000000     0.250000000000     0          
C6       C      0.562660000000     0.062660000000     0.250000000000     0          
C7       C      0.528370000000     0.072180000000     0.248530000000     0          
C8       C      0.517060000000     0.107870000000     0.246540000000     0          
H8       H      0.531600000000     0.127700000000     0.245400000000     0          
O1       O      0.827520000000     0.685260000000     0.222210000000     0          
O2       O      0.799010000000     0.750950000000     0.153440000000     0          
C1       C      0.831670000000     0.668330000000     0.250000000000     0          
C2       C      0.859000000000     0.641000000000     0.250000000000     0          
C3       C      0.876520000000     0.633460000000     0.220180000000     0          
H3       H      0.871200000000     0.645500000000     0.199300000000     0          
C4       C      0.902430000000     0.607880000000     0.220480000000     0          
H4       H      0.914900000000     0.603000000000     0.199800000000     0          
C5       C      0.910030000000     0.589970000000     0.250000000000     0          
C6       C      0.937340000000     0.562660000000     0.250000000000     0          
C7       C      0.927820000000     0.528370000000     0.248530000000     0          
C8       C      0.892130000000     0.517060000000     0.246540000000     0          
H8       H      0.872300000000     0.531600000000     0.245400000000     0          
O1       O      0.314740000000     0.827520000000     0.222210000000     0          
O2       O      0.249050000000     0.799010000000     0.153440000000     0          
C1       C      0.331670000000     0.831670000000     0.250000000000     0          
C2       C      0.359000000000     0.859000000000     0.250000000000     0          
C3       C      0.366540000000     0.876520000000     0.220180000000     0          
H3       H      0.354500000000     0.871200000000     0.199300000000     0          
C4       C      0.392120000000     0.902430000000     0.220480000000     0          
H4       H      0.397000000000     0.914900000000     0.199800000000     0          
C5       C      0.410030000000     0.910030000000     0.250000000000     0          
C6       C      0.437340000000     0.937340000000     0.250000000000     0          
C7       C      0.471630000000     0.927820000000     0.248530000000     0          
C8       C      0.482940000000     0.892130000000     0.246540000000     0          
H8       H      0.468400000000     0.872300000000     0.245400000000     0          
O1       O      0.172480000000     0.314740000000     0.222210000000     0          
O2       O      0.200990000000     0.249050000000     0.153440000000     0          
C1       C      0.168330000000     0.331670000000     0.250000000000     0          
C2       C      0.141000000000     0.359000000000     0.250000000000     0          
C3       C      0.123480000000     0.366540000000     0.220180000000     0          
H3       H      0.128800000000     0.354500000000     0.199300000000     0          
C4       C      0.097570000000     0.392120000000     0.220480000000     0          
H4       H      0.085100000000     0.397000000000     0.199800000000     0          
C5       C      0.089970000000     0.410030000000     0.250000000000     0          
C6       C      0.062660000000     0.437340000000     0.250000000000     0          
C7       C      0.072180000000     0.471630000000     0.248530000000     0          
C8       C      0.107870000000     0.482940000000     0.246540000000     0          
H8       H      0.127700000000     0.468400000000     0.245400000000     0          
O1       O      0.314740000000     0.172480000000     0.777790000000     0          
O2       O      0.249050000000     0.200990000000     0.846560000000     0          
C1       C      0.331670000000     0.168330000000     0.750000000000     0          
C2       C      0.359000000000     0.141000000000     0.750000000000     0          
C3       C      0.366540000000     0.123480000000     0.779820000000     0          
H3       H      0.354500000000     0.128800000000     0.800700000000     0          
C4       C      0.392120000000     0.097570000000     0.779520000000     0          
H4       H      0.397000000000     0.085100000000     0.800200000000     0          
C5       C      0.410030000000     0.089970000000     0.750000000000     0          
C6       C      0.437340000000     0.062660000000     0.750000000000     0          
C7       C      0.471630000000     0.072180000000     0.751470000000     0          
C8       C      0.482940000000     0.107870000000     0.753460000000     0          
H8       H      0.468400000000     0.127700000000     0.754600000000     0          
O1       O      0.827520000000     0.314740000000     0.777790000000     0          
O2       O      0.799010000000     0.249050000000     0.846560000000     0          
C1       C      0.831670000000     0.331670000000     0.750000000000     0          
C2       C      0.859000000000     0.359000000000     0.750000000000     0          
C3       C      0.876520000000     0.366540000000     0.779820000000     0          
H3       H      0.871200000000     0.354500000000     0.800700000000     0          
C4       C      0.902430000000     0.392120000000     0.779520000000     0          
H4       H      0.914900000000     0.397000000000     0.800200000000     0          
C5       C      0.910030000000     0.410030000000     0.750000000000     0          
C6       C      0.937340000000     0.437340000000     0.750000000000     0          
C7       C      0.927820000000     0.471630000000     0.751470000000     0          
C8       C      0.892130000000     0.482940000000     0.753460000000     0          
H8       H      0.872300000000     0.468400000000     0.754600000000     0          
O1       O      0.172480000000     0.685260000000     0.777790000000     0          
O2       O      0.200990000000     0.750950000000     0.846560000000     0          
C1       C      0.168330000000     0.668330000000     0.750000000000     0          
C2       C      0.141000000000     0.641000000000     0.750000000000     0          
C3       C      0.123480000000     0.633460000000     0.779820000000     0          
H3       H      0.128800000000     0.645500000000     0.800700000000     0          
C4       C      0.097570000000     0.607880000000     0.779520000000     0          
H4       H      0.085100000000     0.603000000000     0.800200000000     0          
C5       C      0.089970000000     0.589970000000     0.750000000000     0          
C6       C      0.062660000000     0.562660000000     0.750000000000     0          
C7       C      0.072180000000     0.528370000000     0.751470000000     0          
C8       C      0.107870000000     0.517060000000     0.753460000000     0          
H8       H      0.127700000000     0.531600000000     0.754600000000     0          
Zr1      Zr     0.707106000000     0.771576000000     0.707106000000     0          
O1       O      0.722210000000     0.814740000000     0.672480000000     0          
O2       O      0.653440000000     0.749050000000     0.700990000000     0          
O3       O      0.696300000000     0.758980000000     0.758980000000     0          
O4       O      0.717940000000     0.717940000000     0.717940000000     0          
N1       N      0.749900000000     0.000000000000     0.550580000000     0          
C3       C      0.720180000000     0.866540000000     0.623480000000     0          
H3       H      0.699300000000     0.854500000000     0.628800000000     0          
C4       C      0.720480000000     0.892120000000     0.597570000000     0          
H4       H      0.699800000000     0.897000000000     0.585100000000     0          
C7       C      0.748530000000     0.971630000000     0.572180000000     0          
C8       C      0.746540000000     0.982940000000     0.607870000000     0          
H8       H      0.745400000000     0.968400000000     0.627700000000     0          
Zr1      Zr     0.228424000000     0.707106000000     0.707106000000     0          
O1       O      0.185260000000     0.722210000000     0.672480000000     0          
O2       O      0.250950000000     0.653440000000     0.700990000000     0          
O3       O      0.241020000000     0.696300000000     0.758980000000     0          
O4       O      0.282060000000     0.717940000000     0.717940000000     0          
N1       N      0.000000000000     0.749900000000     0.550580000000     0          
C3       C      0.133460000000     0.720180000000     0.623480000000     0          
H3       H      0.145500000000     0.699300000000     0.628800000000     0          
C4       C      0.107880000000     0.720480000000     0.597570000000     0          
H4       H      0.103000000000     0.699800000000     0.585100000000     0          
C7       C      0.028370000000     0.748530000000     0.572180000000     0          
C8       C      0.017060000000     0.746540000000     0.607870000000     0          
H8       H      0.031600000000     0.745400000000     0.627700000000     0          
Zr1      Zr     0.292894000000     0.228424000000     0.707106000000     0          
O1       O      0.277790000000     0.185260000000     0.672480000000     0          
O2       O      0.346560000000     0.250950000000     0.700990000000     0          
O3       O      0.303700000000     0.241020000000     0.758980000000     0          
O4       O      0.282060000000     0.282060000000     0.717940000000     0          
N1       N      0.250100000000     0.000000000000     0.550580000000     0          
C3       C      0.279820000000     0.133460000000     0.623480000000     0          
H3       H      0.300700000000     0.145500000000     0.628800000000     0          
C4       C      0.279520000000     0.107880000000     0.597570000000     0          
H4       H      0.300200000000     0.103000000000     0.585100000000     0          
C7       C      0.251470000000     0.028370000000     0.572180000000     0          
C8       C      0.253460000000     0.017060000000     0.607870000000     0          
H8       H      0.254600000000     0.031600000000     0.627700000000     0          
Zr1      Zr     0.771576000000     0.292894000000     0.707106000000     0          
O1       O      0.814740000000     0.277790000000     0.672480000000     0          
O2       O      0.749050000000     0.346560000000     0.700990000000     0          
O3       O      0.758980000000     0.303700000000     0.758980000000     0          
O4       O      0.717940000000     0.282060000000     0.717940000000     0          
N1       N      0.000000000000     0.250100000000     0.550580000000     0          
C3       C      0.866540000000     0.279820000000     0.623480000000     0          
H3       H      0.854500000000     0.300700000000     0.628800000000     0          
C4       C      0.892120000000     0.279520000000     0.597570000000     0          
H4       H      0.897000000000     0.300200000000     0.585100000000     0          
C7       C      0.971630000000     0.251470000000     0.572180000000     0          
C8       C      0.982940000000     0.253460000000     0.607870000000     0          
H8       H      0.968400000000     0.254600000000     0.627700000000     0          
Zr1      Zr     0.707106000000     0.228424000000     0.292894000000     0          
O1       O      0.722210000000     0.185260000000     0.327520000000     0          
O2       O      0.653440000000     0.250950000000     0.299010000000     0          
O3       O      0.696300000000     0.241020000000     0.241020000000     0          
O4       O      0.717940000000     0.282060000000     0.282060000000     0          
N1       N      0.749900000000     0.000000000000     0.449420000000     0          
C3       C      0.720180000000     0.133460000000     0.376520000000     0          
H3       H      0.699300000000     0.145500000000     0.371200000000     0          
C4       C      0.720480000000     0.107880000000     0.402430000000     0          
H4       H      0.699800000000     0.103000000000     0.414900000000     0          
C7       C      0.748530000000     0.028370000000     0.427820000000     0          
C8       C      0.746540000000     0.017060000000     0.392130000000     0          
H8       H      0.745400000000     0.031600000000     0.372300000000     0          
Zr1      Zr     0.771576000000     0.707106000000     0.292894000000     0          
O1       O      0.814740000000     0.722210000000     0.327520000000     0          
O2       O      0.749050000000     0.653440000000     0.299010000000     0          
O3       O      0.758980000000     0.696300000000     0.241020000000     0          
O4       O      0.717940000000     0.717940000000     0.282060000000     0          
N1       N      0.000000000000     0.749900000000     0.449420000000     0          
C3       C      0.866540000000     0.720180000000     0.376520000000     0          
H3       H      0.854500000000     0.699300000000     0.371200000000     0          
C4       C      0.892120000000     0.720480000000     0.402430000000     0          
H4       H      0.897000000000     0.699800000000     0.414900000000     0          
C7       C      0.971630000000     0.748530000000     0.427820000000     0          
C8       C      0.982940000000     0.746540000000     0.392130000000     0          
H8       H      0.968400000000     0.745400000000     0.372300000000     0          
Zr1      Zr     0.292894000000     0.771576000000     0.292894000000     0          
O1       O      0.277790000000     0.814740000000     0.327520000000     0          
O2       O      0.346560000000     0.749050000000     0.299010000000     0          
O3       O      0.303700000000     0.758980000000     0.241020000000     0          
O4       O      0.282060000000     0.717940000000     0.282060000000     0          
N1       N      0.250100000000     0.000000000000     0.449420000000     0          
C3       C      0.279820000000     0.866540000000     0.376520000000     0          
H3       H      0.300700000000     0.854500000000     0.371200000000     0          
C4       C      0.279520000000     0.892120000000     0.402430000000     0          
H4       H      0.300200000000     0.897000000000     0.414900000000     0          
C7       C      0.251470000000     0.971630000000     0.427820000000     0          
C8       C      0.253460000000     0.982940000000     0.392130000000     0          
H8       H      0.254600000000     0.968400000000     0.372300000000     0          
Zr1      Zr     0.228424000000     0.292894000000     0.292894000000     0          
O1       O      0.185260000000     0.277790000000     0.327520000000     0          
O2       O      0.250950000000     0.346560000000     0.299010000000     0          
O3       O      0.241020000000     0.303700000000     0.241020000000     0          
O4       O      0.282060000000     0.282060000000     0.282060000000     0          
N1       N      0.000000000000     0.250100000000     0.449420000000     0          
C3       C      0.133460000000     0.279820000000     0.376520000000     0          
H3       H      0.145500000000     0.300700000000     0.371200000000     0          
C4       C      0.107880000000     0.279520000000     0.402430000000     0          
H4       H      0.103000000000     0.300200000000     0.414900000000     0          
C7       C      0.028370000000     0.251470000000     0.427820000000     0          
C8       C      0.017060000000     0.253460000000     0.392130000000     0          
H8       H      0.031600000000     0.254600000000     0.372300000000     0          
Zr1      Zr     0.707106000000     0.707106000000     0.771576000000     0          
O1       O      0.672480000000     0.722210000000     0.814740000000     0          
O2       O      0.700990000000     0.653440000000     0.749050000000     0          
O3       O      0.758980000000     0.696300000000     0.758980000000     0          
N1       N      0.550580000000     0.749900000000     0.000000000000     0          
C3       C      0.623480000000     0.720180000000     0.866540000000     0          
H3       H      0.628800000000     0.699300000000     0.854500000000     0          
C4       C      0.597570000000     0.720480000000     0.892120000000     0          
H4       H      0.585100000000     0.699800000000     0.897000000000     0          
C7       C      0.572180000000     0.748530000000     0.971630000000     0          
C8       C      0.607870000000     0.746540000000     0.982940000000     0          
H8       H      0.627700000000     0.745400000000     0.968400000000     0          
Zr1      Zr     0.292894000000     0.707106000000     0.771576000000     0          
O1       O      0.277790000000     0.672480000000     0.814740000000     0          
O2       O      0.346560000000     0.700990000000     0.749050000000     0          
O3       O      0.303700000000     0.758980000000     0.758980000000     0          
N1       N      0.250100000000     0.550580000000     0.000000000000     0          
C3       C      0.279820000000     0.623480000000     0.866540000000     0          
H3       H      0.300700000000     0.628800000000     0.854500000000     0          
C4       C      0.279520000000     0.597570000000     0.892120000000     0          
H4       H      0.300200000000     0.585100000000     0.897000000000     0          
C7       C      0.251470000000     0.572180000000     0.971630000000     0          
C8       C      0.253460000000     0.607870000000     0.982940000000     0          
H8       H      0.254600000000     0.627700000000     0.968400000000     0          
Zr1      Zr     0.292894000000     0.292894000000     0.771576000000     0          
O1       O      0.327520000000     0.277790000000     0.814740000000     0          
O2       O      0.299010000000     0.346560000000     0.749050000000     0          
O3       O      0.241020000000     0.303700000000     0.758980000000     0          
N1       N      0.449420000000     0.250100000000     0.000000000000     0          
C3       C      0.376520000000     0.279820000000     0.866540000000     0          
H3       H      0.371200000000     0.300700000000     0.854500000000     0          
C4       C      0.402430000000     0.279520000000     0.892120000000     0          
H4       H      0.414900000000     0.300200000000     0.897000000000     0          
C7       C      0.427820000000     0.251470000000     0.971630000000     0          
C8       C      0.392130000000     0.253460000000     0.982940000000     0          
H8       H      0.372300000000     0.254600000000     0.968400000000     0          
Zr1      Zr     0.707106000000     0.292894000000     0.771576000000     0          
O1       O      0.722210000000     0.327520000000     0.814740000000     0          
O2       O      0.653440000000     0.299010000000     0.749050000000     0          
O3       O      0.696300000000     0.241020000000     0.758980000000     0          
N1       N      0.749900000000     0.449420000000     0.000000000000     0          
C3       C      0.720180000000     0.376520000000     0.866540000000     0          
H3       H      0.699300000000     0.371200000000     0.854500000000     0          
C4       C      0.720480000000     0.402430000000     0.892120000000     0          
H4       H      0.699800000000     0.414900000000     0.897000000000     0          
C7       C      0.748530000000     0.427820000000     0.971630000000     0          
C8       C      0.746540000000     0.392130000000     0.982940000000     0          
H8       H      0.745400000000     0.372300000000     0.968400000000     0          
Zr1      Zr     0.707106000000     0.292894000000     0.228424000000     0          
O1       O      0.672480000000     0.277790000000     0.185260000000     0          
O2       O      0.700990000000     0.346560000000     0.250950000000     0          
O3       O      0.758980000000     0.303700000000     0.241020000000     0          
N1       N      0.550580000000     0.250100000000     0.000000000000     0          
C3       C      0.623480000000     0.279820000000     0.133460000000     0          
H3       H      0.628800000000     0.300700000000     0.145500000000     0          
C4       C      0.597570000000     0.279520000000     0.107880000000     0          
H4       H      0.585100000000     0.300200000000     0.103000000000     0          
C7       C      0.572180000000     0.251470000000     0.028370000000     0          
C8       C      0.607870000000     0.253460000000     0.017060000000     0          
H8       H      0.627700000000     0.254600000000     0.031600000000     0          
Zr1      Zr     0.707106000000     0.707106000000     0.228424000000     0          
O1       O      0.722210000000     0.672480000000     0.185260000000     0          
O2       O      0.653440000000     0.700990000000     0.250950000000     0          
O3       O      0.696300000000     0.758980000000     0.241020000000     0          
N1       N      0.749900000000     0.550580000000     0.000000000000     0          
C3       C      0.720180000000     0.623480000000     0.133460000000     0          
H3       H      0.699300000000     0.628800000000     0.145500000000     0          
C4       C      0.720480000000     0.597570000000     0.107880000000     0          
H4       H      0.699800000000     0.585100000000     0.103000000000     0          
C7       C      0.748530000000     0.572180000000     0.028370000000     0          
C8       C      0.746540000000     0.607870000000     0.017060000000     0          
H8       H      0.745400000000     0.627700000000     0.031600000000     0          
Zr1      Zr     0.292894000000     0.707106000000     0.228424000000     0          
O1       O      0.327520000000     0.722210000000     0.185260000000     0          
O2       O      0.299010000000     0.653440000000     0.250950000000     0          
O3       O      0.241020000000     0.696300000000     0.241020000000     0          
N1       N      0.449420000000     0.749900000000     0.000000000000     0          
C3       C      0.376520000000     0.720180000000     0.133460000000     0          
H3       H      0.371200000000     0.699300000000     0.145500000000     0          
C4       C      0.402430000000     0.720480000000     0.107880000000     0          
H4       H      0.414900000000     0.699800000000     0.103000000000     0          
C7       C      0.427820000000     0.748530000000     0.028370000000     0          
C8       C      0.392130000000     0.746540000000     0.017060000000     0          
H8       H      0.372300000000     0.745400000000     0.031600000000     0          
Zr1      Zr     0.292894000000     0.292894000000     0.228424000000     0          
O1       O      0.277790000000     0.327520000000     0.185260000000     0          
O2       O      0.346560000000     0.299010000000     0.250950000000     0          
O3       O      0.303700000000     0.241020000000     0.241020000000     0          
N1       N      0.250100000000     0.449420000000     0.000000000000     0          
C3       C      0.279820000000     0.376520000000     0.133460000000     0          
H3       H      0.300700000000     0.371200000000     0.145500000000     0          
C4       C      0.279520000000     0.402430000000     0.107880000000     0          
H4       H      0.300200000000     0.414900000000     0.103000000000     0          
C7       C      0.251470000000     0.427820000000     0.028370000000     0          
C8       C      0.253460000000     0.392130000000     0.017060000000     0          
H8       H      0.254600000000     0.372300000000     0.031600000000     0          
Zr1      Zr     0.771576000000     0.707106000000     0.707106000000     0          
O1       O      0.814740000000     0.672480000000     0.722210000000     0          
O2       O      0.749050000000     0.700990000000     0.653440000000     0          
O3       O      0.758980000000     0.758980000000     0.696300000000     0          
N1       N      0.000000000000     0.550580000000     0.749900000000     0          
C3       C      0.866540000000     0.623480000000     0.720180000000     0          
H3       H      0.854500000000     0.628800000000     0.699300000000     0          
C4       C      0.892120000000     0.597570000000     0.720480000000     0          
H4       H      0.897000000000     0.585100000000     0.699800000000     0          
C7       C      0.971630000000     0.572180000000     0.748530000000     0          
C8       C      0.982940000000     0.607870000000     0.746540000000     0          
H8       H      0.968400000000     0.627700000000     0.745400000000     0          
Zr1      Zr     0.771576000000     0.292894000000     0.292894000000     0          
O1       O      0.814740000000     0.327520000000     0.277790000000     0          
O2       O      0.749050000000     0.299010000000     0.346560000000     0          
O3       O      0.758980000000     0.241020000000     0.303700000000     0          
N1       N      0.000000000000     0.449420000000     0.250100000000     0          
C3       C      0.866540000000     0.376520000000     0.279820000000     0          
H3       H      0.854500000000     0.371200000000     0.300700000000     0          
C4       C      0.892120000000     0.402430000000     0.279520000000     0          
H4       H      0.897000000000     0.414900000000     0.300200000000     0          
C7       C      0.971630000000     0.427820000000     0.251470000000     0          
C8       C      0.982940000000     0.392130000000     0.253460000000     0          
H8       H      0.968400000000     0.372300000000     0.254600000000     0          
Zr1      Zr     0.707106000000     0.771576000000     0.292894000000     0          
O1       O      0.672480000000     0.814740000000     0.277790000000     0          
O2       O      0.700990000000     0.749050000000     0.346560000000     0          
O3       O      0.758980000000     0.758980000000     0.303700000000     0          
N1       N      0.550580000000     0.000000000000     0.250100000000     0          
C3       C      0.623480000000     0.866540000000     0.279820000000     0          
H3       H      0.628800000000     0.854500000000     0.300700000000     0          
C4       C      0.597570000000     0.892120000000     0.279520000000     0          
H4       H      0.585100000000     0.897000000000     0.300200000000     0          
C7       C      0.572180000000     0.971630000000     0.251470000000     0          
C8       C      0.607870000000     0.982940000000     0.253460000000     0          
H8       H      0.627700000000     0.968400000000     0.254600000000     0          
Zr1      Zr     0.228424000000     0.707106000000     0.292894000000     0          
O1       O      0.185260000000     0.672480000000     0.277790000000     0          
O2       O      0.250950000000     0.700990000000     0.346560000000     0          
O3       O      0.241020000000     0.758980000000     0.303700000000     0          
N1       N      0.000000000000     0.550580000000     0.250100000000     0          
C3       C      0.133460000000     0.623480000000     0.279820000000     0          
H3       H      0.145500000000     0.628800000000     0.300700000000     0          
C4       C      0.107880000000     0.597570000000     0.279520000000     0          
H4       H      0.103000000000     0.585100000000     0.300200000000     0          
C7       C      0.028370000000     0.572180000000     0.251470000000     0          
C8       C      0.017060000000     0.607870000000     0.253460000000     0          
H8       H      0.031600000000     0.627700000000     0.254600000000     0          
Zr1      Zr     0.292894000000     0.228424000000     0.292894000000     0          
O1       O      0.327520000000     0.185260000000     0.277790000000     0          
O2       O      0.299010000000     0.250950000000     0.346560000000     0          
O3       O      0.241020000000     0.241020000000     0.303700000000     0          
N1       N      0.449420000000     0.000000000000     0.250100000000     0          
C3       C      0.376520000000     0.133460000000     0.279820000000     0          
H3       H      0.371200000000     0.145500000000     0.300700000000     0          
C4       C      0.402430000000     0.107880000000     0.279520000000     0          
H4       H      0.414900000000     0.103000000000     0.300200000000     0          
C7       C      0.427820000000     0.028370000000     0.251470000000     0          
C8       C      0.392130000000     0.017060000000     0.253460000000     0          
H8       H      0.372300000000     0.031600000000     0.254600000000     0          
Zr1      Zr     0.228424000000     0.292894000000     0.707106000000     0          
O1       O      0.185260000000     0.327520000000     0.722210000000     0          
O2       O      0.250950000000     0.299010000000     0.653440000000     0          
O3       O      0.241020000000     0.241020000000     0.696300000000     0          
N1       N      0.000000000000     0.449420000000     0.749900000000     0          
C3       C      0.133460000000     0.376520000000     0.720180000000     0          
H3       H      0.145500000000     0.371200000000     0.699300000000     0          
C4       C      0.107880000000     0.402430000000     0.720480000000     0          
H4       H      0.103000000000     0.414900000000     0.699800000000     0          
C7       C      0.028370000000     0.427820000000     0.748530000000     0          
C8       C      0.017060000000     0.392130000000     0.746540000000     0          
H8       H      0.031600000000     0.372300000000     0.745400000000     0          
Zr1      Zr     0.707106000000     0.228424000000     0.707106000000     0          
O1       O      0.672480000000     0.185260000000     0.722210000000     0          
O2       O      0.700990000000     0.250950000000     0.653440000000     0          
O3       O      0.758980000000     0.241020000000     0.696300000000     0          
N1       N      0.550580000000     0.000000000000     0.749900000000     0          
C3       C      0.623480000000     0.133460000000     0.720180000000     0          
H3       H      0.628800000000     0.145500000000     0.699300000000     0          
C4       C      0.597570000000     0.107880000000     0.720480000000     0          
H4       H      0.585100000000     0.103000000000     0.699800000000     0          
C7       C      0.572180000000     0.028370000000     0.748530000000     0          
C8       C      0.607870000000     0.017060000000     0.746540000000     0          
H8       H      0.627700000000     0.031600000000     0.745400000000     0          
Zr1      Zr     0.292894000000     0.771576000000     0.707106000000     0          
O1       O      0.327520000000     0.814740000000     0.722210000000     0          
O2       O      0.299010000000     0.749050000000     0.653440000000     0          
O3       O      0.241020000000     0.758980000000     0.696300000000     0          
N1       N      0.449420000000     0.000000000000     0.749900000000     0          
C3       C      0.376520000000     0.866540000000     0.720180000000     0          
H3       H      0.371200000000     0.854500000000     0.699300000000     0          
C4       C      0.402430000000     0.892120000000     0.720480000000     0          
H4       H      0.414900000000     0.897000000000     0.699800000000     0          
C7       C      0.427820000000     0.971630000000     0.748530000000     0          
C8       C      0.392130000000     0.982940000000     0.746540000000     0          
H8       H      0.372300000000     0.968400000000     0.745400000000     0          
O1       O      0.277790000000     0.185260000000     0.327520000000     0          
O2       O      0.346560000000     0.250950000000     0.299010000000     0          
C3       C      0.279820000000     0.133460000000     0.376520000000     0          
H3       H      0.300700000000     0.145500000000     0.371200000000     0          
C4       C      0.279520000000     0.107880000000     0.402430000000     0          
H4       H      0.300200000000     0.103000000000     0.414900000000     0          
C7       C      0.251470000000     0.028370000000     0.427820000000     0          
C8       C      0.253460000000     0.017060000000     0.392130000000     0          
H8       H      0.254600000000     0.031600000000     0.372300000000     0          
O1       O      0.814740000000     0.277790000000     0.327520000000     0          
O2       O      0.749050000000     0.346560000000     0.299010000000     0          
C3       C      0.866540000000     0.279820000000     0.376520000000     0          
H3       H      0.854500000000     0.300700000000     0.371200000000     0          
C4       C      0.892120000000     0.279520000000     0.402430000000     0          
H4       H      0.897000000000     0.300200000000     0.414900000000     0          
C7       C      0.971630000000     0.251470000000     0.427820000000     0          
C8       C      0.982940000000     0.253460000000     0.392130000000     0          
H8       H      0.968400000000     0.254600000000     0.372300000000     0          
O1       O      0.722210000000     0.814740000000     0.327520000000     0          
O2       O      0.653440000000     0.749050000000     0.299010000000     0          
C3       C      0.720180000000     0.866540000000     0.376520000000     0          
H3       H      0.699300000000     0.854500000000     0.371200000000     0          
C4       C      0.720480000000     0.892120000000     0.402430000000     0          
H4       H      0.699800000000     0.897000000000     0.414900000000     0          
C7       C      0.748530000000     0.971630000000     0.427820000000     0          
C8       C      0.746540000000     0.982940000000     0.392130000000     0          
H8       H      0.745400000000     0.968400000000     0.372300000000     0          
O1       O      0.185260000000     0.722210000000     0.327520000000     0          
O2       O      0.250950000000     0.653440000000     0.299010000000     0          
C3       C      0.133460000000     0.720180000000     0.376520000000     0          
H3       H      0.145500000000     0.699300000000     0.371200000000     0          
C4       C      0.107880000000     0.720480000000     0.402430000000     0          
H4       H      0.103000000000     0.699800000000     0.414900000000     0          
C7       C      0.028370000000     0.748530000000     0.427820000000     0          
C8       C      0.017060000000     0.746540000000     0.392130000000     0          
H8       H      0.031600000000     0.745400000000     0.372300000000     0          
O1       O      0.277790000000     0.814740000000     0.672480000000     0          
O2       O      0.346560000000     0.749050000000     0.700990000000     0          
C3       C      0.279820000000     0.866540000000     0.623480000000     0          
H3       H      0.300700000000     0.854500000000     0.628800000000     0          
C4       C      0.279520000000     0.892120000000     0.597570000000     0          
H4       H      0.300200000000     0.897000000000     0.585100000000     0          
C7       C      0.251470000000     0.971630000000     0.572180000000     0          
C8       C      0.253460000000     0.982940000000     0.607870000000     0          
H8       H      0.254600000000     0.968400000000     0.627700000000     0          
O1       O      0.185260000000     0.277790000000     0.672480000000     0          
O2       O      0.250950000000     0.346560000000     0.700990000000     0          
C3       C      0.133460000000     0.279820000000     0.623480000000     0          
H3       H      0.145500000000     0.300700000000     0.628800000000     0          
C4       C      0.107880000000     0.279520000000     0.597570000000     0          
H4       H      0.103000000000     0.300200000000     0.585100000000     0          
C7       C      0.028370000000     0.251470000000     0.572180000000     0          
C8       C      0.017060000000     0.253460000000     0.607870000000     0          
H8       H      0.031600000000     0.254600000000     0.627700000000     0          
O1       O      0.722210000000     0.185260000000     0.672480000000     0          
O2       O      0.653440000000     0.250950000000     0.700990000000     0          
C3       C      0.720180000000     0.133460000000     0.623480000000     0          
H3       H      0.699300000000     0.145500000000     0.628800000000     0          
C4       C      0.720480000000     0.107880000000     0.597570000000     0          
H4       H      0.699800000000     0.103000000000     0.585100000000     0          
C7       C      0.748530000000     0.028370000000     0.572180000000     0          
C8       C      0.746540000000     0.017060000000     0.607870000000     0          
H8       H      0.745400000000     0.031600000000     0.627700000000     0          
O1       O      0.814740000000     0.722210000000     0.672480000000     0          
O2       O      0.749050000000     0.653440000000     0.700990000000     0          
C3       C      0.866540000000     0.720180000000     0.623480000000     0          
H3       H      0.854500000000     0.699300000000     0.628800000000     0          
C4       C      0.892120000000     0.720480000000     0.597570000000     0          
H4       H      0.897000000000     0.699800000000     0.585100000000     0          
C7       C      0.971630000000     0.748530000000     0.572180000000     0          
C8       C      0.982940000000     0.746540000000     0.607870000000     0          
H8       H      0.968400000000     0.745400000000     0.627700000000     0          
O1       O      0.327520000000     0.277790000000     0.185260000000     0          
O2       O      0.299010000000     0.346560000000     0.250950000000     0          
C3       C      0.376520000000     0.279820000000     0.133460000000     0          
H3       H      0.371200000000     0.300700000000     0.145500000000     0          
C4       C      0.402430000000     0.279520000000     0.107880000000     0          
H4       H      0.414900000000     0.300200000000     0.103000000000     0          
C7       C      0.427820000000     0.251470000000     0.028370000000     0          
C8       C      0.392130000000     0.253460000000     0.017060000000     0          
H8       H      0.372300000000     0.254600000000     0.031600000000     0          
O1       O      0.722210000000     0.327520000000     0.185260000000     0          
O2       O      0.653440000000     0.299010000000     0.250950000000     0          
C3       C      0.720180000000     0.376520000000     0.133460000000     0          
H3       H      0.699300000000     0.371200000000     0.145500000000     0          
C4       C      0.720480000000     0.402430000000     0.107880000000     0          
H4       H      0.699800000000     0.414900000000     0.103000000000     0          
C7       C      0.748530000000     0.427820000000     0.028370000000     0          
C8       C      0.746540000000     0.392130000000     0.017060000000     0          
H8       H      0.745400000000     0.372300000000     0.031600000000     0          
O1       O      0.672480000000     0.722210000000     0.185260000000     0          
O2       O      0.700990000000     0.653440000000     0.250950000000     0          
C3       C      0.623480000000     0.720180000000     0.133460000000     0          
H3       H      0.628800000000     0.699300000000     0.145500000000     0          
C4       C      0.597570000000     0.720480000000     0.107880000000     0          
H4       H      0.585100000000     0.699800000000     0.103000000000     0          
C7       C      0.572180000000     0.748530000000     0.028370000000     0          
C8       C      0.607870000000     0.746540000000     0.017060000000     0          
H8       H      0.627700000000     0.745400000000     0.031600000000     0          
O1       O      0.277790000000     0.672480000000     0.185260000000     0          
O2       O      0.346560000000     0.700990000000     0.250950000000     0          
C3       C      0.279820000000     0.623480000000     0.133460000000     0          
H3       H      0.300700000000     0.628800000000     0.145500000000     0          
C4       C      0.279520000000     0.597570000000     0.107880000000     0          
H4       H      0.300200000000     0.585100000000     0.103000000000     0          
C7       C      0.251470000000     0.572180000000     0.028370000000     0          
C8       C      0.253460000000     0.607870000000     0.017060000000     0          
H8       H      0.254600000000     0.627700000000     0.031600000000     0          
O1       O      0.327520000000     0.722210000000     0.814740000000     0          
O2       O      0.299010000000     0.653440000000     0.749050000000     0          
C3       C      0.376520000000     0.720180000000     0.866540000000     0          
H3       H      0.371200000000     0.699300000000     0.854500000000     0          
C4       C      0.402430000000     0.720480000000     0.892120000000     0          
H4       H      0.414900000000     0.699800000000     0.897000000000     0          
C7       C      0.427820000000     0.748530000000     0.971630000000     0          
C8       C      0.392130000000     0.746540000000     0.982940000000     0          
H8       H      0.372300000000     0.745400000000     0.968400000000     0          
O1       O      0.277790000000     0.327520000000     0.814740000000     0          
O2       O      0.346560000000     0.299010000000     0.749050000000     0          
C3       C      0.279820000000     0.376520000000     0.866540000000     0          
H3       H      0.300700000000     0.371200000000     0.854500000000     0          
C4       C      0.279520000000     0.402430000000     0.892120000000     0          
H4       H      0.300200000000     0.414900000000     0.897000000000     0          
C7       C      0.251470000000     0.427820000000     0.971630000000     0          
C8       C      0.253460000000     0.392130000000     0.982940000000     0          
H8       H      0.254600000000     0.372300000000     0.968400000000     0          
O1       O      0.672480000000     0.277790000000     0.814740000000     0          
O2       O      0.700990000000     0.346560000000     0.749050000000     0          
C3       C      0.623480000000     0.279820000000     0.866540000000     0          
H3       H      0.628800000000     0.300700000000     0.854500000000     0          
C4       C      0.597570000000     0.279520000000     0.892120000000     0          
H4       H      0.585100000000     0.300200000000     0.897000000000     0          
C7       C      0.572180000000     0.251470000000     0.971630000000     0          
C8       C      0.607870000000     0.253460000000     0.982940000000     0          
H8       H      0.627700000000     0.254600000000     0.968400000000     0          
O1       O      0.722210000000     0.672480000000     0.814740000000     0          
O2       O      0.653440000000     0.700990000000     0.749050000000     0          
C3       C      0.720180000000     0.623480000000     0.866540000000     0          
H3       H      0.699300000000     0.628800000000     0.854500000000     0          
C4       C      0.720480000000     0.597570000000     0.892120000000     0          
H4       H      0.699800000000     0.585100000000     0.897000000000     0          
C7       C      0.748530000000     0.572180000000     0.971630000000     0          
C8       C      0.746540000000     0.607870000000     0.982940000000     0          
H8       H      0.745400000000     0.627700000000     0.968400000000     0          
O1       O      0.185260000000     0.327520000000     0.277790000000     0          
O2       O      0.250950000000     0.299010000000     0.346560000000     0          
C3       C      0.133460000000     0.376520000000     0.279820000000     0          
H3       H      0.145500000000     0.371200000000     0.300700000000     0          
C4       C      0.107880000000     0.402430000000     0.279520000000     0          
H4       H      0.103000000000     0.414900000000     0.300200000000     0          
C7       C      0.028370000000     0.427820000000     0.251470000000     0          
C8       C      0.017060000000     0.392130000000     0.253460000000     0          
H8       H      0.031600000000     0.372300000000     0.254600000000     0          
O1       O      0.185260000000     0.672480000000     0.722210000000     0          
O2       O      0.250950000000     0.700990000000     0.653440000000     0          
C3       C      0.133460000000     0.623480000000     0.720180000000     0          
H3       H      0.145500000000     0.628800000000     0.699300000000     0          
C4       C      0.107880000000     0.597570000000     0.720480000000     0          
H4       H      0.103000000000     0.585100000000     0.699800000000     0          
C7       C      0.028370000000     0.572180000000     0.748530000000     0          
C8       C      0.017060000000     0.607870000000     0.746540000000     0          
H8       H      0.031600000000     0.627700000000     0.745400000000     0          
O1       O      0.327520000000     0.185260000000     0.722210000000     0          
O2       O      0.299010000000     0.250950000000     0.653440000000     0          
C3       C      0.376520000000     0.133460000000     0.720180000000     0          
H3       H      0.371200000000     0.145500000000     0.699300000000     0          
C4       C      0.402430000000     0.107880000000     0.720480000000     0          
H4       H      0.414900000000     0.103000000000     0.699800000000     0          
C7       C      0.427820000000     0.028370000000     0.748530000000     0          
C8       C      0.392130000000     0.017060000000     0.746540000000     0          
H8       H      0.372300000000     0.031600000000     0.745400000000     0          
O1       O      0.814740000000     0.327520000000     0.722210000000     0          
O2       O      0.749050000000     0.299010000000     0.653440000000     0          
C3       C      0.866540000000     0.376520000000     0.720180000000     0          
H3       H      0.854500000000     0.371200000000     0.699300000000     0          
C4       C      0.892120000000     0.402430000000     0.720480000000     0          
H4       H      0.897000000000     0.414900000000     0.699800000000     0          
C7       C      0.971630000000     0.427820000000     0.748530000000     0          
C8       C      0.982940000000     0.392130000000     0.746540000000     0          
H8       H      0.968400000000     0.372300000000     0.745400000000     0          
O1       O      0.672480000000     0.814740000000     0.722210000000     0          
O2       O      0.700990000000     0.749050000000     0.653440000000     0          
C3       C      0.623480000000     0.866540000000     0.720180000000     0          
H3       H      0.628800000000     0.854500000000     0.699300000000     0          
C4       C      0.597570000000     0.892120000000     0.720480000000     0          
H4       H      0.585100000000     0.897000000000     0.699800000000     0          
C7       C      0.572180000000     0.971630000000     0.748530000000     0          
C8       C      0.607870000000     0.982940000000     0.746540000000     0          
H8       H      0.627700000000     0.968400000000     0.745400000000     0          
O1       O      0.814740000000     0.672480000000     0.277790000000     0          
O2       O      0.749050000000     0.700990000000     0.346560000000     0          
C3       C      0.866540000000     0.623480000000     0.279820000000     0          
H3       H      0.854500000000     0.628800000000     0.300700000000     0          
C4       C      0.892120000000     0.597570000000     0.279520000000     0          
H4       H      0.897000000000     0.585100000000     0.300200000000     0          
C7       C      0.971630000000     0.572180000000     0.251470000000     0          
C8       C      0.982940000000     0.607870000000     0.253460000000     0          
H8       H      0.968400000000     0.627700000000     0.254600000000     0          
O1       O      0.327520000000     0.814740000000     0.277790000000     0          
O2       O      0.299010000000     0.749050000000     0.346560000000     0          
C3       C      0.376520000000     0.866540000000     0.279820000000     0          
H3       H      0.371200000000     0.854500000000     0.300700000000     0          
C4       C      0.402430000000     0.892120000000     0.279520000000     0          
H4       H      0.414900000000     0.897000000000     0.300200000000     0          
C7       C      0.427820000000     0.971630000000     0.251470000000     0          
C8       C      0.392130000000     0.982940000000     0.253460000000     0          
H8       H      0.372300000000     0.968400000000     0.254600000000     0          
O1       O      0.672480000000     0.185260000000     0.277790000000     0          
O2       O      0.700990000000     0.250950000000     0.346560000000     0          
C3       C      0.623480000000     0.133460000000     0.279820000000     0          
H3       H      0.628800000000     0.145500000000     0.300700000000     0          
C4       C      0.597570000000     0.107880000000     0.279520000000     0          
H4       H      0.585100000000     0.103000000000     0.300200000000     0          
C7       C      0.572180000000     0.028370000000     0.251470000000     0          
C8       C      0.607870000000     0.017060000000     0.253460000000     0          
H8       H      0.627700000000     0.031600000000     0.254600000000     0          


