data_Cu-BTC

_audit_creation_method RASPA-1.0
_audit_creation_date 2022-10-19
_audit_author_name 'sp1709'

_citation_author_name        'S.S.Y. Chui, S.M.F. Lo, J.P.H. Charmant, A.G. Orpen, I.D. Williams'
_citation_title              'A chemically functionalizable nanoporous material [Cu-3(TMA)(2)(H2O)(3)](n)'
_citation_journal_abbrev     'Science'
_citation_journal_volume     283
_citation_page_first         1148
_citation_page_last          1150
_citation_year               1999

_cell_length_a    52.686
_cell_length_b    52.686
_cell_length_c    52.686
_cell_angle_alpha 90
_cell_angle_beta  90
_cell_angle_gamma 90
_cell_volume      146247

_symmetry_cell_setting          cubic
_symmetry_space_group_name_Hall 'P 1'
_symmetry_space_group_name_H-M  'P 1'
_symmetry_Int_Tables_number     1

_symmetry_equiv_pos_as_xyz 'x,y,z'

loop_
_atom_site_label
_atom_site_type_symbol
_atom_site_fract_x
_atom_site_fract_y
_atom_site_fract_z
_atom_site_charge
Cu1      Cu     0.142650000000     0.142650000000     0.000000000000     0          
O1       O      0.158300000000     0.121550000000     0.473900000000     0          
C1       C      0.148400000000     0.101600000000     0.465650000000     0          
C2       C      0.161000000000     0.089000000000     0.443500000000     0          
C3       C      0.182750000000     0.099700000000     0.432750000000     0          
H1       H      0.190100000000     0.114000000000     0.440100000000     0          
Cu1      Cu     0.357350000000     0.142650000000     0.000000000000     0          
O1       O      0.378450000000     0.158300000000     0.473900000000     0          
C1       C      0.398400000000     0.148400000000     0.465650000000     0          
C2       C      0.411000000000     0.161000000000     0.443500000000     0          
C3       C      0.400300000000     0.182750000000     0.432750000000     0          
H1       H      0.386000000000     0.190100000000     0.440100000000     0          
Cu1      Cu     0.357350000000     0.357350000000     0.000000000000     0          
O1       O      0.341700000000     0.378450000000     0.473900000000     0          
C1       C      0.351600000000     0.398400000000     0.465650000000     0          
C2       C      0.339000000000     0.411000000000     0.443500000000     0          
C3       C      0.317250000000     0.400300000000     0.432750000000     0          
H1       H      0.309900000000     0.386000000000     0.440100000000     0          
Cu1      Cu     0.142650000000     0.357350000000     0.000000000000     0          
O1       O      0.121550000000     0.341700000000     0.473900000000     0          
C1       C      0.101600000000     0.351600000000     0.465650000000     0          
C2       C      0.089000000000     0.339000000000     0.443500000000     0          
C3       C      0.099700000000     0.317250000000     0.432750000000     0          
H1       H      0.114000000000     0.309900000000     0.440100000000     0          
O1       O      0.158300000000     0.378450000000     0.026100000000     0          
C1       C      0.148400000000     0.398400000000     0.034350000000     0          
C2       C      0.161000000000     0.411000000000     0.056500000000     0          
C3       C      0.182750000000     0.400300000000     0.067250000000     0          
H1       H      0.190100000000     0.386000000000     0.059900000000     0          
O1       O      0.121550000000     0.158300000000     0.026100000000     0          
C1       C      0.101600000000     0.148400000000     0.034350000000     0          
C2       C      0.089000000000     0.161000000000     0.056500000000     0          
C3       C      0.099700000000     0.182750000000     0.067250000000     0          
H1       H      0.114000000000     0.190100000000     0.059900000000     0          
O1       O      0.341700000000     0.121550000000     0.026100000000     0          
C1       C      0.351600000000     0.101600000000     0.034350000000     0          
C2       C      0.339000000000     0.089000000000     0.056500000000     0          
C3       C      0.317250000000     0.099700000000     0.067250000000     0          
H1       H      0.309900000000     0.114000000000     0.059900000000     0          
O1       O      0.378450000000     0.341700000000     0.026100000000     0          
C1       C      0.398400000000     0.351600000000     0.034350000000     0          
C2       C      0.411000000000     0.339000000000     0.056500000000     0          
C3       C      0.400300000000     0.317250000000     0.067250000000     0          
H1       H      0.386000000000     0.309900000000     0.059900000000     0          
Cu1      Cu     0.000000000000     0.142650000000     0.142650000000     0          
O1       O      0.473900000000     0.158300000000     0.121550000000     0          
C1       C      0.465650000000     0.148400000000     0.101600000000     0          
C2       C      0.443500000000     0.161000000000     0.089000000000     0          
C3       C      0.432750000000     0.182750000000     0.099700000000     0          
H1       H      0.440100000000     0.190100000000     0.114000000000     0          
Cu1      Cu     0.357350000000     0.000000000000     0.142650000000     0          
O1       O      0.341700000000     0.473900000000     0.121550000000     0          
C1       C      0.351600000000     0.465650000000     0.101600000000     0          
C2       C      0.339000000000     0.443500000000     0.089000000000     0          
C3       C      0.317250000000     0.432750000000     0.099700000000     0          
H1       H      0.309900000000     0.440100000000     0.114000000000     0          
Cu1      Cu     0.000000000000     0.357350000000     0.142650000000     0          
O1       O      0.026100000000     0.341700000000     0.121550000000     0          
C1       C      0.034350000000     0.351600000000     0.101600000000     0          
C2       C      0.056500000000     0.339000000000     0.089000000000     0          
C3       C      0.067250000000     0.317250000000     0.099700000000     0          
H1       H      0.059900000000     0.309900000000     0.114000000000     0          
Cu1      Cu     0.142650000000     0.000000000000     0.142650000000     0          
O1       O      0.158300000000     0.026100000000     0.121550000000     0          
C1       C      0.148400000000     0.034350000000     0.101600000000     0          
C2       C      0.161000000000     0.056500000000     0.089000000000     0          
C3       C      0.182750000000     0.067250000000     0.099700000000     0          
H1       H      0.190100000000     0.059900000000     0.114000000000     0          
Cu1      Cu     0.000000000000     0.357350000000     0.357350000000     0          
O1       O      0.473900000000     0.341700000000     0.378450000000     0          
C1       C      0.465650000000     0.351600000000     0.398400000000     0          
C2       C      0.443500000000     0.339000000000     0.411000000000     0          
C3       C      0.432750000000     0.317250000000     0.400300000000     0          
H1       H      0.440100000000     0.309900000000     0.386000000000     0          
Cu1      Cu     0.142650000000     0.000000000000     0.357350000000     0          
O1       O      0.158300000000     0.473900000000     0.378450000000     0          
C1       C      0.148400000000     0.465650000000     0.398400000000     0          
C2       C      0.161000000000     0.443500000000     0.411000000000     0          
C3       C      0.182750000000     0.432750000000     0.400300000000     0          
H1       H      0.190100000000     0.440100000000     0.386000000000     0          
Cu1      Cu     0.000000000000     0.142650000000     0.357350000000     0          
O1       O      0.026100000000     0.158300000000     0.378450000000     0          
C1       C      0.034350000000     0.148400000000     0.398400000000     0          
C2       C      0.056500000000     0.161000000000     0.411000000000     0          
C3       C      0.067250000000     0.182750000000     0.400300000000     0          
H1       H      0.059900000000     0.190100000000     0.386000000000     0          
Cu1      Cu     0.357350000000     0.000000000000     0.357350000000     0          
O1       O      0.341700000000     0.026100000000     0.378450000000     0          
C1       C      0.351600000000     0.034350000000     0.398400000000     0          
C2       C      0.339000000000     0.056500000000     0.411000000000     0          
C3       C      0.317250000000     0.067250000000     0.400300000000     0          
H1       H      0.309900000000     0.059900000000     0.386000000000     0          
O1       O      0.121550000000     0.473900000000     0.158300000000     0          
C1       C      0.101600000000     0.465650000000     0.148400000000     0          
C2       C      0.089000000000     0.443500000000     0.161000000000     0          
C3       C      0.099700000000     0.432750000000     0.182750000000     0          
H1       H      0.114000000000     0.440100000000     0.190100000000     0          
O1       O      0.121550000000     0.026100000000     0.341700000000     0          
C1       C      0.101600000000     0.034350000000     0.351600000000     0          
C2       C      0.089000000000     0.056500000000     0.339000000000     0          
C3       C      0.099700000000     0.067250000000     0.317250000000     0          
H1       H      0.114000000000     0.059900000000     0.309900000000     0          
O1       O      0.473900000000     0.121550000000     0.341700000000     0          
C1       C      0.465650000000     0.101600000000     0.351600000000     0          
C2       C      0.443500000000     0.089000000000     0.339000000000     0          
C3       C      0.432750000000     0.099700000000     0.317250000000     0          
H1       H      0.440100000000     0.114000000000     0.309900000000     0          
O1       O      0.378450000000     0.473900000000     0.341700000000     0          
C1       C      0.398400000000     0.465650000000     0.351600000000     0          
C2       C      0.411000000000     0.443500000000     0.339000000000     0          
C3       C      0.400300000000     0.432750000000     0.317250000000     0          
H1       H      0.386000000000     0.440100000000     0.309900000000     0          
O1       O      0.026100000000     0.378450000000     0.341700000000     0          
C1       C      0.034350000000     0.398400000000     0.351600000000     0          
C2       C      0.056500000000     0.411000000000     0.339000000000     0          
C3       C      0.067250000000     0.400300000000     0.317250000000     0          
H1       H      0.059900000000     0.386000000000     0.309900000000     0          
O1       O      0.378450000000     0.026100000000     0.158300000000     0          
C1       C      0.398400000000     0.034350000000     0.148400000000     0          
C2       C      0.411000000000     0.056500000000     0.161000000000     0          
C3       C      0.400300000000     0.067250000000     0.182750000000     0          
H1       H      0.386000000000     0.059900000000     0.190100000000     0          
O1       O      0.473900000000     0.378450000000     0.158300000000     0          
C1       C      0.465650000000     0.398400000000     0.148400000000     0          
C2       C      0.443500000000     0.411000000000     0.161000000000     0          
C3       C      0.432750000000     0.400300000000     0.182750000000     0          
H1       H      0.440100000000     0.386000000000     0.190100000000     0          
O1       O      0.026100000000     0.121550000000     0.158300000000     0          
C1       C      0.034350000000     0.101600000000     0.148400000000     0          
C2       C      0.056500000000     0.089000000000     0.161000000000     0          
C3       C      0.067250000000     0.099700000000     0.182750000000     0          
H1       H      0.059900000000     0.114000000000     0.190100000000     0          
O1       O      0.341700000000     0.378450000000     0.026100000000     0          
C1       C      0.351600000000     0.398400000000     0.034350000000     0          
C2       C      0.339000000000     0.411000000000     0.056500000000     0          
C3       C      0.317250000000     0.400300000000     0.067250000000     0          
H1       H      0.309900000000     0.386000000000     0.059900000000     0          
O1       O      0.121550000000     0.341700000000     0.026100000000     0          
C1       C      0.101600000000     0.351600000000     0.034350000000     0          
C2       C      0.089000000000     0.339000000000     0.056500000000     0          
C3       C      0.099700000000     0.317250000000     0.067250000000     0          
H1       H      0.114000000000     0.309900000000     0.059900000000     0          
O1       O      0.158300000000     0.121550000000     0.026100000000     0          
C1       C      0.148400000000     0.101600000000     0.034350000000     0          
C2       C      0.161000000000     0.089000000000     0.056500000000     0          
C3       C      0.182750000000     0.099700000000     0.067250000000     0          
H1       H      0.190100000000     0.114000000000     0.059900000000     0          
O1       O      0.378450000000     0.158300000000     0.026100000000     0          
C1       C      0.398400000000     0.148400000000     0.034350000000     0          
C2       C      0.411000000000     0.161000000000     0.056500000000     0          
C3       C      0.400300000000     0.182750000000     0.067250000000     0          
H1       H      0.386000000000     0.190100000000     0.059900000000     0          
O1       O      0.341700000000     0.121550000000     0.473900000000     0          
C1       C      0.351600000000     0.101600000000     0.465650000000     0          
C2       C      0.339000000000     0.089000000000     0.443500000000     0          
C3       C      0.317250000000     0.099700000000     0.432750000000     0          
H1       H      0.309900000000     0.114000000000     0.440100000000     0          
O1       O      0.378450000000     0.341700000000     0.473900000000     0          
C1       C      0.398400000000     0.351600000000     0.465650000000     0          
C2       C      0.411000000000     0.339000000000     0.443500000000     0          
C3       C      0.400300000000     0.317250000000     0.432750000000     0          
H1       H      0.386000000000     0.309900000000     0.440100000000     0          
O1       O      0.158300000000     0.378450000000     0.473900000000     0          
C1       C      0.148400000000     0.398400000000     0.465650000000     0          
C2       C      0.161000000000     0.411000000000     0.443500000000     0          
C3       C      0.182750000000     0.400300000000     0.432750000000     0          
H1       H      0.190100000000     0.386000000000     0.440100000000     0          
O1       O      0.121550000000     0.158300000000     0.473900000000     0          
C1       C      0.101600000000     0.148400000000     0.465650000000     0          
C2       C      0.089000000000     0.161000000000     0.443500000000     0          
C3       C      0.099700000000     0.182750000000     0.432750000000     0          
H1       H      0.114000000000     0.190100000000     0.440100000000     0          
O1       O      0.026100000000     0.341700000000     0.378450000000     0          
C1       C      0.034350000000     0.351600000000     0.398400000000     0          
C2       C      0.056500000000     0.339000000000     0.411000000000     0          
C3       C      0.067250000000     0.317250000000     0.400300000000     0          
H1       H      0.059900000000     0.309900000000     0.386000000000     0          
O1       O      0.158300000000     0.026100000000     0.378450000000     0          
C1       C      0.148400000000     0.034350000000     0.398400000000     0          
C2       C      0.161000000000     0.056500000000     0.411000000000     0          
C3       C      0.182750000000     0.067250000000     0.400300000000     0          
H1       H      0.190100000000     0.059900000000     0.386000000000     0          
O1       O      0.473900000000     0.158300000000     0.378450000000     0          
C1       C      0.465650000000     0.148400000000     0.398400000000     0          
C2       C      0.443500000000     0.161000000000     0.411000000000     0          
C3       C      0.432750000000     0.182750000000     0.400300000000     0          
H1       H      0.440100000000     0.190100000000     0.386000000000     0          
O1       O      0.341700000000     0.473900000000     0.378450000000     0          
C1       C      0.351600000000     0.465650000000     0.398400000000     0          
C2       C      0.339000000000     0.443500000000     0.411000000000     0          
C3       C      0.317250000000     0.432750000000     0.400300000000     0          
H1       H      0.309900000000     0.440100000000     0.386000000000     0          
O1       O      0.026100000000     0.158300000000     0.121550000000     0          
C1       C      0.034350000000     0.148400000000     0.101600000000     0          
C2       C      0.056500000000     0.161000000000     0.089000000000     0          
C3       C      0.067250000000     0.182750000000     0.099700000000     0          
H1       H      0.059900000000     0.190100000000     0.114000000000     0          
O1       O      0.341700000000     0.026100000000     0.121550000000     0          
C1       C      0.351600000000     0.034350000000     0.101600000000     0          
C2       C      0.339000000000     0.056500000000     0.089000000000     0          
C3       C      0.317250000000     0.067250000000     0.099700000000     0          
H1       H      0.309900000000     0.059900000000     0.114000000000     0          
O1       O      0.473900000000     0.341700000000     0.121550000000     0          
C1       C      0.465650000000     0.351600000000     0.101600000000     0          
C2       C      0.443500000000     0.339000000000     0.089000000000     0          
C3       C      0.432750000000     0.317250000000     0.099700000000     0          
H1       H      0.440100000000     0.309900000000     0.114000000000     0          
O1       O      0.158300000000     0.473900000000     0.121550000000     0          
C1       C      0.148400000000     0.465650000000     0.101600000000     0          
C2       C      0.161000000000     0.443500000000     0.089000000000     0          
C3       C      0.182750000000     0.432750000000     0.099700000000     0          
H1       H      0.190100000000     0.440100000000     0.114000000000     0          
O1       O      0.378450000000     0.026100000000     0.341700000000     0          
C1       C      0.398400000000     0.034350000000     0.351600000000     0          
C2       C      0.411000000000     0.056500000000     0.339000000000     0          
C3       C      0.400300000000     0.067250000000     0.317250000000     0          
H1       H      0.386000000000     0.059900000000     0.309900000000     0          
O1       O      0.378450000000     0.473900000000     0.158300000000     0          
C1       C      0.398400000000     0.465650000000     0.148400000000     0          
C2       C      0.411000000000     0.443500000000     0.161000000000     0          
C3       C      0.400300000000     0.432750000000     0.182750000000     0          
H1       H      0.386000000000     0.440100000000     0.190100000000     0          
O1       O      0.026100000000     0.378450000000     0.158300000000     0          
C1       C      0.034350000000     0.398400000000     0.148400000000     0          
C2       C      0.056500000000     0.411000000000     0.161000000000     0          
C3       C      0.067250000000     0.400300000000     0.182750000000     0          
H1       H      0.059900000000     0.386000000000     0.190100000000     0          
O1       O      0.121550000000     0.026100000000     0.158300000000     0          
C1       C      0.101600000000     0.034350000000     0.148400000000     0          
C2       C      0.089000000000     0.056500000000     0.161000000000     0          
C3       C      0.099700000000     0.067250000000     0.182750000000     0          
H1       H      0.114000000000     0.059900000000     0.190100000000     0          
O1       O      0.473900000000     0.121550000000     0.158300000000     0          
C1       C      0.465650000000     0.101600000000     0.148400000000     0          
C2       C      0.443500000000     0.089000000000     0.161000000000     0          
C3       C      0.432750000000     0.099700000000     0.182750000000     0          
H1       H      0.440100000000     0.114000000000     0.190100000000     0          
O1       O      0.121550000000     0.473900000000     0.341700000000     0          
C1       C      0.101600000000     0.465650000000     0.351600000000     0          
C2       C      0.089000000000     0.443500000000     0.339000000000     0          
C3       C      0.099700000000     0.432750000000     0.317250000000     0          
H1       H      0.114000000000     0.440100000000     0.309900000000     0          
O1       O      0.026100000000     0.121550000000     0.341700000000     0          
C1       C      0.034350000000     0.101600000000     0.351600000000     0          
C2       C      0.056500000000     0.089000000000     0.339000000000     0          
C3       C      0.067250000000     0.099700000000     0.317250000000     0          
H1       H      0.059900000000     0.114000000000     0.309900000000     0          
O1       O      0.473900000000     0.378450000000     0.341700000000     0          
C1       C      0.465650000000     0.398400000000     0.351600000000     0          
C2       C      0.443500000000     0.411000000000     0.339000000000     0          
C3       C      0.432750000000     0.400300000000     0.317250000000     0          
H1       H      0.440100000000     0.386000000000     0.309900000000     0          
Cu1      Cu     0.142650000000     0.392650000000     0.250000000000     0          
O1       O      0.158300000000     0.371550000000     0.223900000000     0          
C1       C      0.148400000000     0.351600000000     0.215650000000     0          
C2       C      0.161000000000     0.339000000000     0.193500000000     0          
C3       C      0.182750000000     0.349700000000     0.182750000000     0          
H1       H      0.190100000000     0.364000000000     0.190100000000     0          
Cu1      Cu     0.357350000000     0.392650000000     0.250000000000     0          
O1       O      0.378450000000     0.408300000000     0.223900000000     0          
C1       C      0.398400000000     0.398400000000     0.215650000000     0          
C2       C      0.411000000000     0.411000000000     0.193500000000     0          
Cu1      Cu     0.357350000000     0.107350000000     0.250000000000     0          
O1       O      0.341700000000     0.128450000000     0.223900000000     0          
C1       C      0.351600000000     0.148400000000     0.215650000000     0          
C2       C      0.339000000000     0.161000000000     0.193500000000     0          
C3       C      0.317250000000     0.150300000000     0.182750000000     0          
H1       H      0.309900000000     0.136000000000     0.190100000000     0          
Cu1      Cu     0.142650000000     0.107350000000     0.250000000000     0          
O1       O      0.121550000000     0.091700000000     0.223900000000     0          
C1       C      0.101600000000     0.101600000000     0.215650000000     0          
C2       C      0.089000000000     0.089000000000     0.193500000000     0          
O1       O      0.158300000000     0.128450000000     0.276100000000     0          
C1       C      0.148400000000     0.148400000000     0.284350000000     0          
C2       C      0.161000000000     0.161000000000     0.306500000000     0          
C3       C      0.182750000000     0.150300000000     0.317250000000     0          
H1       H      0.190100000000     0.136000000000     0.309900000000     0          
O1       O      0.121550000000     0.408300000000     0.276100000000     0          
C1       C      0.101600000000     0.398400000000     0.284350000000     0          
C2       C      0.089000000000     0.411000000000     0.306500000000     0          
O1       O      0.341700000000     0.371550000000     0.276100000000     0          
C1       C      0.351600000000     0.351600000000     0.284350000000     0          
C2       C      0.339000000000     0.339000000000     0.306500000000     0          
C3       C      0.317250000000     0.349700000000     0.317250000000     0          
H1       H      0.309900000000     0.364000000000     0.309900000000     0          
O1       O      0.378450000000     0.091700000000     0.276100000000     0          
C1       C      0.398400000000     0.101600000000     0.284350000000     0          
C2       C      0.411000000000     0.089000000000     0.306500000000     0          
Cu1      Cu     0.000000000000     0.392650000000     0.392650000000     0          
O1       O      0.473900000000     0.408300000000     0.371550000000     0          
C3       C      0.432750000000     0.432750000000     0.349700000000     0          
H1       H      0.440100000000     0.440100000000     0.364000000000     0          
Cu1      Cu     0.357350000000     0.250000000000     0.392650000000     0          
O1       O      0.341700000000     0.223900000000     0.371550000000     0          
C1       C      0.351600000000     0.215650000000     0.351600000000     0          
C2       C      0.339000000000     0.193500000000     0.339000000000     0          
C3       C      0.317250000000     0.182750000000     0.349700000000     0          
H1       H      0.309900000000     0.190100000000     0.364000000000     0          
Cu1      Cu     0.000000000000     0.107350000000     0.392650000000     0          
O1       O      0.026100000000     0.091700000000     0.371550000000     0          
C3       C      0.067250000000     0.067250000000     0.349700000000     0          
H1       H      0.059900000000     0.059900000000     0.364000000000     0          
Cu1      Cu     0.142650000000     0.250000000000     0.392650000000     0          
O1       O      0.158300000000     0.276100000000     0.371550000000     0          
C1       C      0.148400000000     0.284350000000     0.351600000000     0          
C2       C      0.161000000000     0.306500000000     0.339000000000     0          
C3       C      0.182750000000     0.317250000000     0.349700000000     0          
H1       H      0.190100000000     0.309900000000     0.364000000000     0          
Cu1      Cu     0.000000000000     0.107350000000     0.107350000000     0          
O1       O      0.473900000000     0.091700000000     0.128450000000     0          
C3       C      0.432750000000     0.067250000000     0.150300000000     0          
H1       H      0.440100000000     0.059900000000     0.136000000000     0          
Cu1      Cu     0.142650000000     0.250000000000     0.107350000000     0          
O1       O      0.158300000000     0.223900000000     0.128450000000     0          
C1       C      0.148400000000     0.215650000000     0.148400000000     0          
C2       C      0.161000000000     0.193500000000     0.161000000000     0          
C3       C      0.182750000000     0.182750000000     0.150300000000     0          
H1       H      0.190100000000     0.190100000000     0.136000000000     0          
Cu1      Cu     0.000000000000     0.392650000000     0.107350000000     0          
O1       O      0.026100000000     0.408300000000     0.128450000000     0          
C3       C      0.067250000000     0.432750000000     0.150300000000     0          
H1       H      0.059900000000     0.440100000000     0.136000000000     0          
Cu1      Cu     0.357350000000     0.250000000000     0.107350000000     0          
O1       O      0.341700000000     0.276100000000     0.128450000000     0          
C1       C      0.351600000000     0.284350000000     0.148400000000     0          
C2       C      0.339000000000     0.306500000000     0.161000000000     0          
C3       C      0.317250000000     0.317250000000     0.150300000000     0          
H1       H      0.309900000000     0.309900000000     0.136000000000     0          
O1       O      0.121550000000     0.223900000000     0.408300000000     0          
C1       C      0.101600000000     0.215650000000     0.398400000000     0          
C2       C      0.089000000000     0.193500000000     0.411000000000     0          
O1       O      0.121550000000     0.276100000000     0.091700000000     0          
C1       C      0.101600000000     0.284350000000     0.101600000000     0          
C2       C      0.089000000000     0.306500000000     0.089000000000     0          
O1       O      0.473900000000     0.371550000000     0.091700000000     0          
C3       C      0.432750000000     0.349700000000     0.067250000000     0          
H1       H      0.440100000000     0.364000000000     0.059900000000     0          
O1       O      0.378450000000     0.223900000000     0.091700000000     0          
C1       C      0.398400000000     0.215650000000     0.101600000000     0          
C2       C      0.411000000000     0.193500000000     0.089000000000     0          
O1       O      0.026100000000     0.128450000000     0.091700000000     0          
C3       C      0.067250000000     0.150300000000     0.067250000000     0          
H1       H      0.059900000000     0.136000000000     0.059900000000     0          
O1       O      0.378450000000     0.276100000000     0.408300000000     0          
C1       C      0.398400000000     0.284350000000     0.398400000000     0          
C2       C      0.411000000000     0.306500000000     0.411000000000     0          
O1       O      0.473900000000     0.128450000000     0.408300000000     0          
C3       C      0.432750000000     0.150300000000     0.432750000000     0          
H1       H      0.440100000000     0.136000000000     0.440100000000     0          
O1       O      0.026100000000     0.371550000000     0.408300000000     0          
C3       C      0.067250000000     0.349700000000     0.432750000000     0          
H1       H      0.059900000000     0.364000000000     0.440100000000     0          
O1       O      0.341700000000     0.128450000000     0.276100000000     0          
C1       C      0.351600000000     0.148400000000     0.284350000000     0          
C2       C      0.339000000000     0.161000000000     0.306500000000     0          
C3       C      0.317250000000     0.150300000000     0.317250000000     0          
H1       H      0.309900000000     0.136000000000     0.309900000000     0          
O1       O      0.121550000000     0.091700000000     0.276100000000     0          
C1       C      0.101600000000     0.101600000000     0.284350000000     0          
C2       C      0.089000000000     0.089000000000     0.306500000000     0          
O1       O      0.158300000000     0.371550000000     0.276100000000     0          
C1       C      0.148400000000     0.351600000000     0.284350000000     0          
C2       C      0.161000000000     0.339000000000     0.306500000000     0          
C3       C      0.182750000000     0.349700000000     0.317250000000     0          
H1       H      0.190100000000     0.364000000000     0.309900000000     0          
O1       O      0.378450000000     0.408300000000     0.276100000000     0          
C1       C      0.398400000000     0.398400000000     0.284350000000     0          
C2       C      0.411000000000     0.411000000000     0.306500000000     0          
O1       O      0.341700000000     0.371550000000     0.223900000000     0          
C1       C      0.351600000000     0.351600000000     0.215650000000     0          
C2       C      0.339000000000     0.339000000000     0.193500000000     0          
C3       C      0.317250000000     0.349700000000     0.182750000000     0          
H1       H      0.309900000000     0.364000000000     0.190100000000     0          
O1       O      0.378450000000     0.091700000000     0.223900000000     0          
C1       C      0.398400000000     0.101600000000     0.215650000000     0          
C2       C      0.411000000000     0.089000000000     0.193500000000     0          
O1       O      0.158300000000     0.128450000000     0.223900000000     0          
C1       C      0.148400000000     0.148400000000     0.215650000000     0          
C2       C      0.161000000000     0.161000000000     0.193500000000     0          
C3       C      0.182750000000     0.150300000000     0.182750000000     0          
H1       H      0.190100000000     0.136000000000     0.190100000000     0          
O1       O      0.121550000000     0.408300000000     0.223900000000     0          
C1       C      0.101600000000     0.398400000000     0.215650000000     0          
C2       C      0.089000000000     0.411000000000     0.193500000000     0          
O1       O      0.026100000000     0.091700000000     0.128450000000     0          
C3       C      0.067250000000     0.067250000000     0.150300000000     0          
H1       H      0.059900000000     0.059900000000     0.136000000000     0          
O1       O      0.158300000000     0.276100000000     0.128450000000     0          
C1       C      0.148400000000     0.284350000000     0.148400000000     0          
C2       C      0.161000000000     0.306500000000     0.161000000000     0          
C3       C      0.182750000000     0.317250000000     0.150300000000     0          
H1       H      0.190100000000     0.309900000000     0.136000000000     0          
O1       O      0.473900000000     0.408300000000     0.128450000000     0          
C3       C      0.432750000000     0.432750000000     0.150300000000     0          
H1       H      0.440100000000     0.440100000000     0.136000000000     0          
O1       O      0.341700000000     0.223900000000     0.128450000000     0          
C1       C      0.351600000000     0.215650000000     0.148400000000     0          
C2       C      0.339000000000     0.193500000000     0.161000000000     0          
C3       C      0.317250000000     0.182750000000     0.150300000000     0          
H1       H      0.309900000000     0.190100000000     0.136000000000     0          
O1       O      0.026100000000     0.408300000000     0.371550000000     0          
C3       C      0.067250000000     0.432750000000     0.349700000000     0          
H1       H      0.059900000000     0.440100000000     0.364000000000     0          
O1       O      0.341700000000     0.276100000000     0.371550000000     0          
C1       C      0.351600000000     0.284350000000     0.351600000000     0          
C2       C      0.339000000000     0.306500000000     0.339000000000     0          
C3       C      0.317250000000     0.317250000000     0.349700000000     0          
H1       H      0.309900000000     0.309900000000     0.364000000000     0          
O1       O      0.473900000000     0.091700000000     0.371550000000     0          
C3       C      0.432750000000     0.067250000000     0.349700000000     0          
H1       H      0.440100000000     0.059900000000     0.364000000000     0          
O1       O      0.158300000000     0.223900000000     0.371550000000     0          
C1       C      0.148400000000     0.215650000000     0.351600000000     0          
C2       C      0.161000000000     0.193500000000     0.339000000000     0          
C3       C      0.182750000000     0.182750000000     0.349700000000     0          
H1       H      0.190100000000     0.190100000000     0.364000000000     0          
O1       O      0.378450000000     0.276100000000     0.091700000000     0          
C1       C      0.398400000000     0.284350000000     0.101600000000     0          
C2       C      0.411000000000     0.306500000000     0.089000000000     0          
O1       O      0.378450000000     0.223900000000     0.408300000000     0          
C1       C      0.398400000000     0.215650000000     0.398400000000     0          
C2       C      0.411000000000     0.193500000000     0.411000000000     0          
O1       O      0.026100000000     0.128450000000     0.408300000000     0          
C3       C      0.067250000000     0.150300000000     0.432750000000     0          
H1       H      0.059900000000     0.136000000000     0.440100000000     0          
O1       O      0.121550000000     0.276100000000     0.408300000000     0          
C1       C      0.101600000000     0.284350000000     0.398400000000     0          
C2       C      0.089000000000     0.306500000000     0.411000000000     0          
O1       O      0.473900000000     0.371550000000     0.408300000000     0          
C3       C      0.432750000000     0.349700000000     0.432750000000     0          
H1       H      0.440100000000     0.364000000000     0.440100000000     0          
O1       O      0.121550000000     0.223900000000     0.091700000000     0          
C1       C      0.101600000000     0.215650000000     0.101600000000     0          
C2       C      0.089000000000     0.193500000000     0.089000000000     0          
O1       O      0.026100000000     0.371550000000     0.091700000000     0          
C3       C      0.067250000000     0.349700000000     0.067250000000     0          
H1       H      0.059900000000     0.364000000000     0.059900000000     0          
O1       O      0.473900000000     0.128450000000     0.091700000000     0          
C3       C      0.432750000000     0.150300000000     0.067250000000     0          
H1       H      0.440100000000     0.136000000000     0.059900000000     0          
Cu1      Cu     0.392650000000     0.142650000000     0.250000000000     0          
O1       O      0.408300000000     0.121550000000     0.223900000000     0          
Cu1      Cu     0.107350000000     0.142650000000     0.250000000000     0          
O1       O      0.128450000000     0.158300000000     0.223900000000     0          
C3       C      0.150300000000     0.182750000000     0.182750000000     0          
H1       H      0.136000000000     0.190100000000     0.190100000000     0          
Cu1      Cu     0.107350000000     0.357350000000     0.250000000000     0          
O1       O      0.091700000000     0.378450000000     0.223900000000     0          
Cu1      Cu     0.392650000000     0.357350000000     0.250000000000     0          
O1       O      0.371550000000     0.341700000000     0.223900000000     0          
C3       C      0.349700000000     0.317250000000     0.182750000000     0          
H1       H      0.364000000000     0.309900000000     0.190100000000     0          
O1       O      0.408300000000     0.378450000000     0.276100000000     0          
O1       O      0.371550000000     0.158300000000     0.276100000000     0          
C3       C      0.349700000000     0.182750000000     0.317250000000     0          
H1       H      0.364000000000     0.190100000000     0.309900000000     0          
O1       O      0.091700000000     0.121550000000     0.276100000000     0          
O1       O      0.128450000000     0.341700000000     0.276100000000     0          
C3       C      0.150300000000     0.317250000000     0.317250000000     0          
H1       H      0.136000000000     0.309900000000     0.309900000000     0          
Cu1      Cu     0.250000000000     0.142650000000     0.392650000000     0          
O1       O      0.223900000000     0.158300000000     0.371550000000     0          
C1       C      0.215650000000     0.148400000000     0.351600000000     0          
C2       C      0.193500000000     0.161000000000     0.339000000000     0          
Cu1      Cu     0.107350000000     0.000000000000     0.392650000000     0          
O1       O      0.091700000000     0.473900000000     0.371550000000     0          
Cu1      Cu     0.250000000000     0.357350000000     0.392650000000     0          
O1       O      0.276100000000     0.341700000000     0.371550000000     0          
C1       C      0.284350000000     0.351600000000     0.351600000000     0          
C2       C      0.306500000000     0.339000000000     0.339000000000     0          
Cu1      Cu     0.392650000000     0.000000000000     0.392650000000     0          
O1       O      0.408300000000     0.026100000000     0.371550000000     0          
Cu1      Cu     0.250000000000     0.357350000000     0.107350000000     0          
O1       O      0.223900000000     0.341700000000     0.128450000000     0          
C1       C      0.215650000000     0.351600000000     0.148400000000     0          
C2       C      0.193500000000     0.339000000000     0.161000000000     0          
Cu1      Cu     0.392650000000     0.000000000000     0.107350000000     0          
O1       O      0.408300000000     0.473900000000     0.128450000000     0          
Cu1      Cu     0.250000000000     0.142650000000     0.107350000000     0          
O1       O      0.276100000000     0.158300000000     0.128450000000     0          
C1       C      0.284350000000     0.148400000000     0.148400000000     0          
C2       C      0.306500000000     0.161000000000     0.161000000000     0          
Cu1      Cu     0.107350000000     0.000000000000     0.107350000000     0          
O1       O      0.091700000000     0.026100000000     0.128450000000     0          
O1       O      0.371550000000     0.473900000000     0.408300000000     0          
C3       C      0.349700000000     0.432750000000     0.432750000000     0          
H1       H      0.364000000000     0.440100000000     0.440100000000     0          
O1       O      0.371550000000     0.026100000000     0.091700000000     0          
C3       C      0.349700000000     0.067250000000     0.067250000000     0          
H1       H      0.364000000000     0.059900000000     0.059900000000     0          
O1       O      0.223900000000     0.121550000000     0.091700000000     0          
C1       C      0.215650000000     0.101600000000     0.101600000000     0          
C2       C      0.193500000000     0.089000000000     0.089000000000     0          
O1       O      0.128450000000     0.473900000000     0.091700000000     0          
C3       C      0.150300000000     0.432750000000     0.067250000000     0          
H1       H      0.136000000000     0.440100000000     0.059900000000     0          
O1       O      0.276100000000     0.378450000000     0.091700000000     0          
C1       C      0.284350000000     0.398400000000     0.101600000000     0          
C2       C      0.306500000000     0.411000000000     0.089000000000     0          
O1       O      0.128450000000     0.026100000000     0.408300000000     0          
C3       C      0.150300000000     0.067250000000     0.432750000000     0          
H1       H      0.136000000000     0.059900000000     0.440100000000     0          
O1       O      0.223900000000     0.378450000000     0.408300000000     0          
C1       C      0.215650000000     0.398400000000     0.398400000000     0          
C2       C      0.193500000000     0.411000000000     0.411000000000     0          
O1       O      0.276100000000     0.121550000000     0.408300000000     0          
C1       C      0.284350000000     0.101600000000     0.398400000000     0          
C2       C      0.306500000000     0.089000000000     0.411000000000     0          
O1       O      0.091700000000     0.378450000000     0.276100000000     0          
O1       O      0.371550000000     0.341700000000     0.276100000000     0          
C3       C      0.349700000000     0.317250000000     0.317250000000     0          
H1       H      0.364000000000     0.309900000000     0.309900000000     0          
O1       O      0.408300000000     0.121550000000     0.276100000000     0          
O1       O      0.128450000000     0.158300000000     0.276100000000     0          
C3       C      0.150300000000     0.182750000000     0.317250000000     0          
H1       H      0.136000000000     0.190100000000     0.309900000000     0          
O1       O      0.091700000000     0.121550000000     0.223900000000     0          
O1       O      0.128450000000     0.341700000000     0.223900000000     0          
C3       C      0.150300000000     0.317250000000     0.182750000000     0          
H1       H      0.136000000000     0.309900000000     0.190100000000     0          
O1       O      0.408300000000     0.378450000000     0.223900000000     0          
O1       O      0.371550000000     0.158300000000     0.223900000000     0          
C3       C      0.349700000000     0.182750000000     0.182750000000     0          
H1       H      0.364000000000     0.190100000000     0.190100000000     0          
O1       O      0.276100000000     0.341700000000     0.128450000000     0          
C1       C      0.284350000000     0.351600000000     0.148400000000     0          
C2       C      0.306500000000     0.339000000000     0.161000000000     0          
O1       O      0.408300000000     0.026100000000     0.128450000000     0          
O1       O      0.223900000000     0.158300000000     0.128450000000     0          
C1       C      0.215650000000     0.148400000000     0.148400000000     0          
C2       C      0.193500000000     0.161000000000     0.161000000000     0          
O1       O      0.091700000000     0.473900000000     0.128450000000     0          
O1       O      0.276100000000     0.158300000000     0.371550000000     0          
C1       C      0.284350000000     0.148400000000     0.351600000000     0          
C2       C      0.306500000000     0.161000000000     0.339000000000     0          
O1       O      0.091700000000     0.026100000000     0.371550000000     0          
O1       O      0.223900000000     0.341700000000     0.371550000000     0          
C1       C      0.215650000000     0.351600000000     0.351600000000     0          
C2       C      0.193500000000     0.339000000000     0.339000000000     0          
O1       O      0.408300000000     0.473900000000     0.371550000000     0          
O1       O      0.128450000000     0.026100000000     0.091700000000     0          
C3       C      0.150300000000     0.067250000000     0.067250000000     0          
H1       H      0.136000000000     0.059900000000     0.059900000000     0          
O1       O      0.128450000000     0.473900000000     0.408300000000     0          
C3       C      0.150300000000     0.432750000000     0.432750000000     0          
H1       H      0.136000000000     0.440100000000     0.440100000000     0          
O1       O      0.276100000000     0.378450000000     0.408300000000     0          
C1       C      0.284350000000     0.398400000000     0.398400000000     0          
C2       C      0.306500000000     0.411000000000     0.411000000000     0          
O1       O      0.371550000000     0.026100000000     0.408300000000     0          
C3       C      0.349700000000     0.067250000000     0.432750000000     0          
H1       H      0.364000000000     0.059900000000     0.440100000000     0          
O1       O      0.223900000000     0.121550000000     0.408300000000     0          
C1       C      0.215650000000     0.101600000000     0.398400000000     0          
C2       C      0.193500000000     0.089000000000     0.411000000000     0          
O1       O      0.371550000000     0.473900000000     0.091700000000     0          
C3       C      0.349700000000     0.432750000000     0.067250000000     0          
H1       H      0.364000000000     0.440100000000     0.059900000000     0          
O1       O      0.276100000000     0.121550000000     0.091700000000     0          
C1       C      0.284350000000     0.101600000000     0.101600000000     0          
C2       C      0.306500000000     0.089000000000     0.089000000000     0          
O1       O      0.223900000000     0.378450000000     0.091700000000     0          
C1       C      0.215650000000     0.398400000000     0.101600000000     0          
C2       C      0.193500000000     0.411000000000     0.089000000000     0          
Cu1      Cu     0.392650000000     0.392650000000     0.000000000000     0          
O1       O      0.408300000000     0.371550000000     0.473900000000     0          
Cu1      Cu     0.107350000000     0.392650000000     0.000000000000     0          
O1       O      0.128450000000     0.408300000000     0.473900000000     0          
Cu1      Cu     0.107350000000     0.107350000000     0.000000000000     0          
O1       O      0.091700000000     0.128450000000     0.473900000000     0          
Cu1      Cu     0.392650000000     0.107350000000     0.000000000000     0          
O1       O      0.371550000000     0.091700000000     0.473900000000     0          
O1       O      0.408300000000     0.128450000000     0.026100000000     0          
O1       O      0.371550000000     0.408300000000     0.026100000000     0          
O1       O      0.091700000000     0.371550000000     0.026100000000     0          
O1       O      0.128450000000     0.091700000000     0.026100000000     0          
Cu1      Cu     0.250000000000     0.392650000000     0.142650000000     0          
O1       O      0.223900000000     0.408300000000     0.121550000000     0          
Cu1      Cu     0.107350000000     0.250000000000     0.142650000000     0          
O1       O      0.091700000000     0.223900000000     0.121550000000     0          
Cu1      Cu     0.250000000000     0.107350000000     0.142650000000     0          
O1       O      0.276100000000     0.091700000000     0.121550000000     0          
Cu1      Cu     0.392650000000     0.250000000000     0.142650000000     0          
O1       O      0.408300000000     0.276100000000     0.121550000000     0          
Cu1      Cu     0.250000000000     0.107350000000     0.357350000000     0          
O1       O      0.223900000000     0.091700000000     0.378450000000     0          
Cu1      Cu     0.392650000000     0.250000000000     0.357350000000     0          
O1       O      0.408300000000     0.223900000000     0.378450000000     0          
Cu1      Cu     0.250000000000     0.392650000000     0.357350000000     0          
O1       O      0.276100000000     0.408300000000     0.378450000000     0          
Cu1      Cu     0.107350000000     0.250000000000     0.357350000000     0          
O1       O      0.091700000000     0.276100000000     0.378450000000     0          
O1       O      0.371550000000     0.223900000000     0.158300000000     0          
O1       O      0.371550000000     0.276100000000     0.341700000000     0          
O1       O      0.223900000000     0.371550000000     0.341700000000     0          
O1       O      0.128450000000     0.223900000000     0.341700000000     0          
O1       O      0.276100000000     0.128450000000     0.341700000000     0          
O1       O      0.128450000000     0.276100000000     0.158300000000     0          
O1       O      0.223900000000     0.128450000000     0.158300000000     0          
O1       O      0.276100000000     0.371550000000     0.158300000000     0          
O1       O      0.091700000000     0.128450000000     0.026100000000     0          
O1       O      0.371550000000     0.091700000000     0.026100000000     0          
O1       O      0.408300000000     0.371550000000     0.026100000000     0          
O1       O      0.128450000000     0.408300000000     0.026100000000     0          
O1       O      0.091700000000     0.371550000000     0.473900000000     0          
O1       O      0.128450000000     0.091700000000     0.473900000000     0          
O1       O      0.408300000000     0.128450000000     0.473900000000     0          
O1       O      0.371550000000     0.408300000000     0.473900000000     0          
O1       O      0.276100000000     0.091700000000     0.378450000000     0          
O1       O      0.408300000000     0.276100000000     0.378450000000     0          
O1       O      0.223900000000     0.408300000000     0.378450000000     0          
O1       O      0.091700000000     0.223900000000     0.378450000000     0          
O1       O      0.276100000000     0.408300000000     0.121550000000     0          
O1       O      0.091700000000     0.276100000000     0.121550000000     0          
O1       O      0.223900000000     0.091700000000     0.121550000000     0          
O1       O      0.408300000000     0.223900000000     0.121550000000     0          
O1       O      0.128450000000     0.276100000000     0.341700000000     0          
O1       O      0.128450000000     0.223900000000     0.158300000000     0          
O1       O      0.276100000000     0.128450000000     0.158300000000     0          
O1       O      0.371550000000     0.276100000000     0.158300000000     0          
O1       O      0.223900000000     0.371550000000     0.158300000000     0          
O1       O      0.371550000000     0.223900000000     0.341700000000     0          
O1       O      0.276100000000     0.371550000000     0.341700000000     0          
O1       O      0.223900000000     0.128450000000     0.341700000000     0          
Cu1      Cu     0.142650000000     0.142650000000     0.500000000000     0          
O1       O      0.158300000000     0.121550000000     0.973900000000     0          
C1       C      0.148400000000     0.101600000000     0.965650000000     0          
C2       C      0.161000000000     0.089000000000     0.943500000000     0          
C3       C      0.182750000000     0.099700000000     0.932750000000     0          
H1       H      0.190100000000     0.114000000000     0.940100000000     0          
Cu1      Cu     0.357350000000     0.142650000000     0.500000000000     0          
O1       O      0.378450000000     0.158300000000     0.973900000000     0          
C1       C      0.398400000000     0.148400000000     0.965650000000     0          
C2       C      0.411000000000     0.161000000000     0.943500000000     0          
C3       C      0.400300000000     0.182750000000     0.932750000000     0          
H1       H      0.386000000000     0.190100000000     0.940100000000     0          
Cu1      Cu     0.357350000000     0.357350000000     0.500000000000     0          
O1       O      0.341700000000     0.378450000000     0.973900000000     0          
C1       C      0.351600000000     0.398400000000     0.965650000000     0          
C2       C      0.339000000000     0.411000000000     0.943500000000     0          
C3       C      0.317250000000     0.400300000000     0.932750000000     0          
H1       H      0.309900000000     0.386000000000     0.940100000000     0          
Cu1      Cu     0.142650000000     0.357350000000     0.500000000000     0          
O1       O      0.121550000000     0.341700000000     0.973900000000     0          
C1       C      0.101600000000     0.351600000000     0.965650000000     0          
C2       C      0.089000000000     0.339000000000     0.943500000000     0          
C3       C      0.099700000000     0.317250000000     0.932750000000     0          
H1       H      0.114000000000     0.309900000000     0.940100000000     0          
O1       O      0.158300000000     0.378450000000     0.526100000000     0          
C1       C      0.148400000000     0.398400000000     0.534350000000     0          
C2       C      0.161000000000     0.411000000000     0.556500000000     0          
C3       C      0.182750000000     0.400300000000     0.567250000000     0          
H1       H      0.190100000000     0.386000000000     0.559900000000     0          
O1       O      0.121550000000     0.158300000000     0.526100000000     0          
C1       C      0.101600000000     0.148400000000     0.534350000000     0          
C2       C      0.089000000000     0.161000000000     0.556500000000     0          
C3       C      0.099700000000     0.182750000000     0.567250000000     0          
H1       H      0.114000000000     0.190100000000     0.559900000000     0          
O1       O      0.341700000000     0.121550000000     0.526100000000     0          
C1       C      0.351600000000     0.101600000000     0.534350000000     0          
C2       C      0.339000000000     0.089000000000     0.556500000000     0          
C3       C      0.317250000000     0.099700000000     0.567250000000     0          
H1       H      0.309900000000     0.114000000000     0.559900000000     0          
O1       O      0.378450000000     0.341700000000     0.526100000000     0          
C1       C      0.398400000000     0.351600000000     0.534350000000     0          
C2       C      0.411000000000     0.339000000000     0.556500000000     0          
C3       C      0.400300000000     0.317250000000     0.567250000000     0          
H1       H      0.386000000000     0.309900000000     0.559900000000     0          
Cu1      Cu     0.000000000000     0.142650000000     0.642650000000     0          
O1       O      0.473900000000     0.158300000000     0.621550000000     0          
C1       C      0.465650000000     0.148400000000     0.601600000000     0          
C2       C      0.443500000000     0.161000000000     0.589000000000     0          
C3       C      0.432750000000     0.182750000000     0.599700000000     0          
H1       H      0.440100000000     0.190100000000     0.614000000000     0          
Cu1      Cu     0.357350000000     0.000000000000     0.642650000000     0          
O1       O      0.341700000000     0.473900000000     0.621550000000     0          
C1       C      0.351600000000     0.465650000000     0.601600000000     0          
C2       C      0.339000000000     0.443500000000     0.589000000000     0          
C3       C      0.317250000000     0.432750000000     0.599700000000     0          
H1       H      0.309900000000     0.440100000000     0.614000000000     0          
Cu1      Cu     0.000000000000     0.357350000000     0.642650000000     0          
O1       O      0.026100000000     0.341700000000     0.621550000000     0          
C1       C      0.034350000000     0.351600000000     0.601600000000     0          
C2       C      0.056500000000     0.339000000000     0.589000000000     0          
C3       C      0.067250000000     0.317250000000     0.599700000000     0          
H1       H      0.059900000000     0.309900000000     0.614000000000     0          
Cu1      Cu     0.142650000000     0.000000000000     0.642650000000     0          
O1       O      0.158300000000     0.026100000000     0.621550000000     0          
C1       C      0.148400000000     0.034350000000     0.601600000000     0          
C2       C      0.161000000000     0.056500000000     0.589000000000     0          
C3       C      0.182750000000     0.067250000000     0.599700000000     0          
H1       H      0.190100000000     0.059900000000     0.614000000000     0          
Cu1      Cu     0.000000000000     0.357350000000     0.857350000000     0          
O1       O      0.473900000000     0.341700000000     0.878450000000     0          
C1       C      0.465650000000     0.351600000000     0.898400000000     0          
C2       C      0.443500000000     0.339000000000     0.911000000000     0          
C3       C      0.432750000000     0.317250000000     0.900300000000     0          
H1       H      0.440100000000     0.309900000000     0.886000000000     0          
Cu1      Cu     0.142650000000     0.000000000000     0.857350000000     0          
O1       O      0.158300000000     0.473900000000     0.878450000000     0          
C1       C      0.148400000000     0.465650000000     0.898400000000     0          
C2       C      0.161000000000     0.443500000000     0.911000000000     0          
C3       C      0.182750000000     0.432750000000     0.900300000000     0          
H1       H      0.190100000000     0.440100000000     0.886000000000     0          
Cu1      Cu     0.000000000000     0.142650000000     0.857350000000     0          
O1       O      0.026100000000     0.158300000000     0.878450000000     0          
C1       C      0.034350000000     0.148400000000     0.898400000000     0          
C2       C      0.056500000000     0.161000000000     0.911000000000     0          
C3       C      0.067250000000     0.182750000000     0.900300000000     0          
H1       H      0.059900000000     0.190100000000     0.886000000000     0          
Cu1      Cu     0.357350000000     0.000000000000     0.857350000000     0          
O1       O      0.341700000000     0.026100000000     0.878450000000     0          
C1       C      0.351600000000     0.034350000000     0.898400000000     0          
C2       C      0.339000000000     0.056500000000     0.911000000000     0          
C3       C      0.317250000000     0.067250000000     0.900300000000     0          
H1       H      0.309900000000     0.059900000000     0.886000000000     0          
O1       O      0.121550000000     0.473900000000     0.658300000000     0          
C1       C      0.101600000000     0.465650000000     0.648400000000     0          
C2       C      0.089000000000     0.443500000000     0.661000000000     0          
C3       C      0.099700000000     0.432750000000     0.682750000000     0          
H1       H      0.114000000000     0.440100000000     0.690100000000     0          
O1       O      0.121550000000     0.026100000000     0.841700000000     0          
C1       C      0.101600000000     0.034350000000     0.851600000000     0          
C2       C      0.089000000000     0.056500000000     0.839000000000     0          
C3       C      0.099700000000     0.067250000000     0.817250000000     0          
H1       H      0.114000000000     0.059900000000     0.809900000000     0          
O1       O      0.473900000000     0.121550000000     0.841700000000     0          
C1       C      0.465650000000     0.101600000000     0.851600000000     0          
C2       C      0.443500000000     0.089000000000     0.839000000000     0          
C3       C      0.432750000000     0.099700000000     0.817250000000     0          
H1       H      0.440100000000     0.114000000000     0.809900000000     0          
O1       O      0.378450000000     0.473900000000     0.841700000000     0          
C1       C      0.398400000000     0.465650000000     0.851600000000     0          
C2       C      0.411000000000     0.443500000000     0.839000000000     0          
C3       C      0.400300000000     0.432750000000     0.817250000000     0          
H1       H      0.386000000000     0.440100000000     0.809900000000     0          
O1       O      0.026100000000     0.378450000000     0.841700000000     0          
C1       C      0.034350000000     0.398400000000     0.851600000000     0          
C2       C      0.056500000000     0.411000000000     0.839000000000     0          
C3       C      0.067250000000     0.400300000000     0.817250000000     0          
H1       H      0.059900000000     0.386000000000     0.809900000000     0          
O1       O      0.378450000000     0.026100000000     0.658300000000     0          
C1       C      0.398400000000     0.034350000000     0.648400000000     0          
C2       C      0.411000000000     0.056500000000     0.661000000000     0          
C3       C      0.400300000000     0.067250000000     0.682750000000     0          
H1       H      0.386000000000     0.059900000000     0.690100000000     0          
O1       O      0.473900000000     0.378450000000     0.658300000000     0          
C1       C      0.465650000000     0.398400000000     0.648400000000     0          
C2       C      0.443500000000     0.411000000000     0.661000000000     0          
C3       C      0.432750000000     0.400300000000     0.682750000000     0          
H1       H      0.440100000000     0.386000000000     0.690100000000     0          
O1       O      0.026100000000     0.121550000000     0.658300000000     0          
C1       C      0.034350000000     0.101600000000     0.648400000000     0          
C2       C      0.056500000000     0.089000000000     0.661000000000     0          
C3       C      0.067250000000     0.099700000000     0.682750000000     0          
H1       H      0.059900000000     0.114000000000     0.690100000000     0          
O1       O      0.341700000000     0.378450000000     0.526100000000     0          
C1       C      0.351600000000     0.398400000000     0.534350000000     0          
C2       C      0.339000000000     0.411000000000     0.556500000000     0          
C3       C      0.317250000000     0.400300000000     0.567250000000     0          
H1       H      0.309900000000     0.386000000000     0.559900000000     0          
O1       O      0.121550000000     0.341700000000     0.526100000000     0          
C1       C      0.101600000000     0.351600000000     0.534350000000     0          
C2       C      0.089000000000     0.339000000000     0.556500000000     0          
C3       C      0.099700000000     0.317250000000     0.567250000000     0          
H1       H      0.114000000000     0.309900000000     0.559900000000     0          
O1       O      0.158300000000     0.121550000000     0.526100000000     0          
C1       C      0.148400000000     0.101600000000     0.534350000000     0          
C2       C      0.161000000000     0.089000000000     0.556500000000     0          
C3       C      0.182750000000     0.099700000000     0.567250000000     0          
H1       H      0.190100000000     0.114000000000     0.559900000000     0          
O1       O      0.378450000000     0.158300000000     0.526100000000     0          
C1       C      0.398400000000     0.148400000000     0.534350000000     0          
C2       C      0.411000000000     0.161000000000     0.556500000000     0          
C3       C      0.400300000000     0.182750000000     0.567250000000     0          
H1       H      0.386000000000     0.190100000000     0.559900000000     0          
O1       O      0.341700000000     0.121550000000     0.973900000000     0          
C1       C      0.351600000000     0.101600000000     0.965650000000     0          
C2       C      0.339000000000     0.089000000000     0.943500000000     0          
C3       C      0.317250000000     0.099700000000     0.932750000000     0          
H1       H      0.309900000000     0.114000000000     0.940100000000     0          
O1       O      0.378450000000     0.341700000000     0.973900000000     0          
C1       C      0.398400000000     0.351600000000     0.965650000000     0          
C2       C      0.411000000000     0.339000000000     0.943500000000     0          
C3       C      0.400300000000     0.317250000000     0.932750000000     0          
H1       H      0.386000000000     0.309900000000     0.940100000000     0          
O1       O      0.158300000000     0.378450000000     0.973900000000     0          
C1       C      0.148400000000     0.398400000000     0.965650000000     0          
C2       C      0.161000000000     0.411000000000     0.943500000000     0          
C3       C      0.182750000000     0.400300000000     0.932750000000     0          
H1       H      0.190100000000     0.386000000000     0.940100000000     0          
O1       O      0.121550000000     0.158300000000     0.973900000000     0          
C1       C      0.101600000000     0.148400000000     0.965650000000     0          
C2       C      0.089000000000     0.161000000000     0.943500000000     0          
C3       C      0.099700000000     0.182750000000     0.932750000000     0          
H1       H      0.114000000000     0.190100000000     0.940100000000     0          
O1       O      0.026100000000     0.341700000000     0.878450000000     0          
C1       C      0.034350000000     0.351600000000     0.898400000000     0          
C2       C      0.056500000000     0.339000000000     0.911000000000     0          
C3       C      0.067250000000     0.317250000000     0.900300000000     0          
H1       H      0.059900000000     0.309900000000     0.886000000000     0          
O1       O      0.158300000000     0.026100000000     0.878450000000     0          
C1       C      0.148400000000     0.034350000000     0.898400000000     0          
C2       C      0.161000000000     0.056500000000     0.911000000000     0          
C3       C      0.182750000000     0.067250000000     0.900300000000     0          
H1       H      0.190100000000     0.059900000000     0.886000000000     0          
O1       O      0.473900000000     0.158300000000     0.878450000000     0          
C1       C      0.465650000000     0.148400000000     0.898400000000     0          
C2       C      0.443500000000     0.161000000000     0.911000000000     0          
C3       C      0.432750000000     0.182750000000     0.900300000000     0          
H1       H      0.440100000000     0.190100000000     0.886000000000     0          
O1       O      0.341700000000     0.473900000000     0.878450000000     0          
C1       C      0.351600000000     0.465650000000     0.898400000000     0          
C2       C      0.339000000000     0.443500000000     0.911000000000     0          
C3       C      0.317250000000     0.432750000000     0.900300000000     0          
H1       H      0.309900000000     0.440100000000     0.886000000000     0          
O1       O      0.026100000000     0.158300000000     0.621550000000     0          
C1       C      0.034350000000     0.148400000000     0.601600000000     0          
C2       C      0.056500000000     0.161000000000     0.589000000000     0          
C3       C      0.067250000000     0.182750000000     0.599700000000     0          
H1       H      0.059900000000     0.190100000000     0.614000000000     0          
O1       O      0.341700000000     0.026100000000     0.621550000000     0          
C1       C      0.351600000000     0.034350000000     0.601600000000     0          
C2       C      0.339000000000     0.056500000000     0.589000000000     0          
C3       C      0.317250000000     0.067250000000     0.599700000000     0          
H1       H      0.309900000000     0.059900000000     0.614000000000     0          
O1       O      0.473900000000     0.341700000000     0.621550000000     0          
C1       C      0.465650000000     0.351600000000     0.601600000000     0          
C2       C      0.443500000000     0.339000000000     0.589000000000     0          
C3       C      0.432750000000     0.317250000000     0.599700000000     0          
H1       H      0.440100000000     0.309900000000     0.614000000000     0          
O1       O      0.158300000000     0.473900000000     0.621550000000     0          
C1       C      0.148400000000     0.465650000000     0.601600000000     0          
C2       C      0.161000000000     0.443500000000     0.589000000000     0          
C3       C      0.182750000000     0.432750000000     0.599700000000     0          
H1       H      0.190100000000     0.440100000000     0.614000000000     0          
O1       O      0.378450000000     0.026100000000     0.841700000000     0          
C1       C      0.398400000000     0.034350000000     0.851600000000     0          
C2       C      0.411000000000     0.056500000000     0.839000000000     0          
C3       C      0.400300000000     0.067250000000     0.817250000000     0          
H1       H      0.386000000000     0.059900000000     0.809900000000     0          
O1       O      0.378450000000     0.473900000000     0.658300000000     0          
C1       C      0.398400000000     0.465650000000     0.648400000000     0          
C2       C      0.411000000000     0.443500000000     0.661000000000     0          
C3       C      0.400300000000     0.432750000000     0.682750000000     0          
H1       H      0.386000000000     0.440100000000     0.690100000000     0          
O1       O      0.026100000000     0.378450000000     0.658300000000     0          
C1       C      0.034350000000     0.398400000000     0.648400000000     0          
C2       C      0.056500000000     0.411000000000     0.661000000000     0          
C3       C      0.067250000000     0.400300000000     0.682750000000     0          
H1       H      0.059900000000     0.386000000000     0.690100000000     0          
O1       O      0.121550000000     0.026100000000     0.658300000000     0          
C1       C      0.101600000000     0.034350000000     0.648400000000     0          
C2       C      0.089000000000     0.056500000000     0.661000000000     0          
C3       C      0.099700000000     0.067250000000     0.682750000000     0          
H1       H      0.114000000000     0.059900000000     0.690100000000     0          
O1       O      0.473900000000     0.121550000000     0.658300000000     0          
C1       C      0.465650000000     0.101600000000     0.648400000000     0          
C2       C      0.443500000000     0.089000000000     0.661000000000     0          
C3       C      0.432750000000     0.099700000000     0.682750000000     0          
H1       H      0.440100000000     0.114000000000     0.690100000000     0          
O1       O      0.121550000000     0.473900000000     0.841700000000     0          
C1       C      0.101600000000     0.465650000000     0.851600000000     0          
C2       C      0.089000000000     0.443500000000     0.839000000000     0          
C3       C      0.099700000000     0.432750000000     0.817250000000     0          
H1       H      0.114000000000     0.440100000000     0.809900000000     0          
O1       O      0.026100000000     0.121550000000     0.841700000000     0          
C1       C      0.034350000000     0.101600000000     0.851600000000     0          
C2       C      0.056500000000     0.089000000000     0.839000000000     0          
C3       C      0.067250000000     0.099700000000     0.817250000000     0          
H1       H      0.059900000000     0.114000000000     0.809900000000     0          
O1       O      0.473900000000     0.378450000000     0.841700000000     0          
C1       C      0.465650000000     0.398400000000     0.851600000000     0          
C2       C      0.443500000000     0.411000000000     0.839000000000     0          
C3       C      0.432750000000     0.400300000000     0.817250000000     0          
H1       H      0.440100000000     0.386000000000     0.809900000000     0          
Cu1      Cu     0.142650000000     0.392650000000     0.750000000000     0          
O1       O      0.158300000000     0.371550000000     0.723900000000     0          
C1       C      0.148400000000     0.351600000000     0.715650000000     0          
C2       C      0.161000000000     0.339000000000     0.693500000000     0          
C3       C      0.182750000000     0.349700000000     0.682750000000     0          
H1       H      0.190100000000     0.364000000000     0.690100000000     0          
Cu1      Cu     0.357350000000     0.392650000000     0.750000000000     0          
O1       O      0.378450000000     0.408300000000     0.723900000000     0          
C1       C      0.398400000000     0.398400000000     0.715650000000     0          
C2       C      0.411000000000     0.411000000000     0.693500000000     0          
Cu1      Cu     0.357350000000     0.107350000000     0.750000000000     0          
O1       O      0.341700000000     0.128450000000     0.723900000000     0          
C1       C      0.351600000000     0.148400000000     0.715650000000     0          
C2       C      0.339000000000     0.161000000000     0.693500000000     0          
C3       C      0.317250000000     0.150300000000     0.682750000000     0          
H1       H      0.309900000000     0.136000000000     0.690100000000     0          
Cu1      Cu     0.142650000000     0.107350000000     0.750000000000     0          
O1       O      0.121550000000     0.091700000000     0.723900000000     0          
C1       C      0.101600000000     0.101600000000     0.715650000000     0          
C2       C      0.089000000000     0.089000000000     0.693500000000     0          
O1       O      0.158300000000     0.128450000000     0.776100000000     0          
C1       C      0.148400000000     0.148400000000     0.784350000000     0          
C2       C      0.161000000000     0.161000000000     0.806500000000     0          
C3       C      0.182750000000     0.150300000000     0.817250000000     0          
H1       H      0.190100000000     0.136000000000     0.809900000000     0          
O1       O      0.121550000000     0.408300000000     0.776100000000     0          
C1       C      0.101600000000     0.398400000000     0.784350000000     0          
C2       C      0.089000000000     0.411000000000     0.806500000000     0          
O1       O      0.341700000000     0.371550000000     0.776100000000     0          
C1       C      0.351600000000     0.351600000000     0.784350000000     0          
C2       C      0.339000000000     0.339000000000     0.806500000000     0          
C3       C      0.317250000000     0.349700000000     0.817250000000     0          
H1       H      0.309900000000     0.364000000000     0.809900000000     0          
O1       O      0.378450000000     0.091700000000     0.776100000000     0          
C1       C      0.398400000000     0.101600000000     0.784350000000     0          
C2       C      0.411000000000     0.089000000000     0.806500000000     0          
Cu1      Cu     0.000000000000     0.392650000000     0.892650000000     0          
O1       O      0.473900000000     0.408300000000     0.871550000000     0          
C3       C      0.432750000000     0.432750000000     0.849700000000     0          
H1       H      0.440100000000     0.440100000000     0.864000000000     0          
Cu1      Cu     0.357350000000     0.250000000000     0.892650000000     0          
O1       O      0.341700000000     0.223900000000     0.871550000000     0          
C1       C      0.351600000000     0.215650000000     0.851600000000     0          
C2       C      0.339000000000     0.193500000000     0.839000000000     0          
C3       C      0.317250000000     0.182750000000     0.849700000000     0          
H1       H      0.309900000000     0.190100000000     0.864000000000     0          
Cu1      Cu     0.000000000000     0.107350000000     0.892650000000     0          
O1       O      0.026100000000     0.091700000000     0.871550000000     0          
C3       C      0.067250000000     0.067250000000     0.849700000000     0          
H1       H      0.059900000000     0.059900000000     0.864000000000     0          
Cu1      Cu     0.142650000000     0.250000000000     0.892650000000     0          
O1       O      0.158300000000     0.276100000000     0.871550000000     0          
C1       C      0.148400000000     0.284350000000     0.851600000000     0          
C2       C      0.161000000000     0.306500000000     0.839000000000     0          
C3       C      0.182750000000     0.317250000000     0.849700000000     0          
H1       H      0.190100000000     0.309900000000     0.864000000000     0          
Cu1      Cu     0.000000000000     0.107350000000     0.607350000000     0          
O1       O      0.473900000000     0.091700000000     0.628450000000     0          
C3       C      0.432750000000     0.067250000000     0.650300000000     0          
H1       H      0.440100000000     0.059900000000     0.636000000000     0          
Cu1      Cu     0.142650000000     0.250000000000     0.607350000000     0          
O1       O      0.158300000000     0.223900000000     0.628450000000     0          
C1       C      0.148400000000     0.215650000000     0.648400000000     0          
C2       C      0.161000000000     0.193500000000     0.661000000000     0          
C3       C      0.182750000000     0.182750000000     0.650300000000     0          
H1       H      0.190100000000     0.190100000000     0.636000000000     0          
Cu1      Cu     0.000000000000     0.392650000000     0.607350000000     0          
O1       O      0.026100000000     0.408300000000     0.628450000000     0          
C3       C      0.067250000000     0.432750000000     0.650300000000     0          
H1       H      0.059900000000     0.440100000000     0.636000000000     0          
Cu1      Cu     0.357350000000     0.250000000000     0.607350000000     0          
O1       O      0.341700000000     0.276100000000     0.628450000000     0          
C1       C      0.351600000000     0.284350000000     0.648400000000     0          
C2       C      0.339000000000     0.306500000000     0.661000000000     0          
C3       C      0.317250000000     0.317250000000     0.650300000000     0          
H1       H      0.309900000000     0.309900000000     0.636000000000     0          
O1       O      0.121550000000     0.223900000000     0.908300000000     0          
C1       C      0.101600000000     0.215650000000     0.898400000000     0          
C2       C      0.089000000000     0.193500000000     0.911000000000     0          
O1       O      0.121550000000     0.276100000000     0.591700000000     0          
C1       C      0.101600000000     0.284350000000     0.601600000000     0          
C2       C      0.089000000000     0.306500000000     0.589000000000     0          
O1       O      0.473900000000     0.371550000000     0.591700000000     0          
C3       C      0.432750000000     0.349700000000     0.567250000000     0          
H1       H      0.440100000000     0.364000000000     0.559900000000     0          
O1       O      0.378450000000     0.223900000000     0.591700000000     0          
C1       C      0.398400000000     0.215650000000     0.601600000000     0          
C2       C      0.411000000000     0.193500000000     0.589000000000     0          
O1       O      0.026100000000     0.128450000000     0.591700000000     0          
C3       C      0.067250000000     0.150300000000     0.567250000000     0          
H1       H      0.059900000000     0.136000000000     0.559900000000     0          
O1       O      0.378450000000     0.276100000000     0.908300000000     0          
C1       C      0.398400000000     0.284350000000     0.898400000000     0          
C2       C      0.411000000000     0.306500000000     0.911000000000     0          
O1       O      0.473900000000     0.128450000000     0.908300000000     0          
C3       C      0.432750000000     0.150300000000     0.932750000000     0          
H1       H      0.440100000000     0.136000000000     0.940100000000     0          
O1       O      0.026100000000     0.371550000000     0.908300000000     0          
C3       C      0.067250000000     0.349700000000     0.932750000000     0          
H1       H      0.059900000000     0.364000000000     0.940100000000     0          
O1       O      0.341700000000     0.128450000000     0.776100000000     0          
C1       C      0.351600000000     0.148400000000     0.784350000000     0          
C2       C      0.339000000000     0.161000000000     0.806500000000     0          
C3       C      0.317250000000     0.150300000000     0.817250000000     0          
H1       H      0.309900000000     0.136000000000     0.809900000000     0          
O1       O      0.121550000000     0.091700000000     0.776100000000     0          
C1       C      0.101600000000     0.101600000000     0.784350000000     0          
C2       C      0.089000000000     0.089000000000     0.806500000000     0          
O1       O      0.158300000000     0.371550000000     0.776100000000     0          
C1       C      0.148400000000     0.351600000000     0.784350000000     0          
C2       C      0.161000000000     0.339000000000     0.806500000000     0          
C3       C      0.182750000000     0.349700000000     0.817250000000     0          
H1       H      0.190100000000     0.364000000000     0.809900000000     0          
O1       O      0.378450000000     0.408300000000     0.776100000000     0          
C1       C      0.398400000000     0.398400000000     0.784350000000     0          
C2       C      0.411000000000     0.411000000000     0.806500000000     0          
O1       O      0.341700000000     0.371550000000     0.723900000000     0          
C1       C      0.351600000000     0.351600000000     0.715650000000     0          
C2       C      0.339000000000     0.339000000000     0.693500000000     0          
C3       C      0.317250000000     0.349700000000     0.682750000000     0          
H1       H      0.309900000000     0.364000000000     0.690100000000     0          
O1       O      0.378450000000     0.091700000000     0.723900000000     0          
C1       C      0.398400000000     0.101600000000     0.715650000000     0          
C2       C      0.411000000000     0.089000000000     0.693500000000     0          
O1       O      0.158300000000     0.128450000000     0.723900000000     0          
C1       C      0.148400000000     0.148400000000     0.715650000000     0          
C2       C      0.161000000000     0.161000000000     0.693500000000     0          
C3       C      0.182750000000     0.150300000000     0.682750000000     0          
H1       H      0.190100000000     0.136000000000     0.690100000000     0          
O1       O      0.121550000000     0.408300000000     0.723900000000     0          
C1       C      0.101600000000     0.398400000000     0.715650000000     0          
C2       C      0.089000000000     0.411000000000     0.693500000000     0          
O1       O      0.026100000000     0.091700000000     0.628450000000     0          
C3       C      0.067250000000     0.067250000000     0.650300000000     0          
H1       H      0.059900000000     0.059900000000     0.636000000000     0          
O1       O      0.158300000000     0.276100000000     0.628450000000     0          
C1       C      0.148400000000     0.284350000000     0.648400000000     0          
C2       C      0.161000000000     0.306500000000     0.661000000000     0          
C3       C      0.182750000000     0.317250000000     0.650300000000     0          
H1       H      0.190100000000     0.309900000000     0.636000000000     0          
O1       O      0.473900000000     0.408300000000     0.628450000000     0          
C3       C      0.432750000000     0.432750000000     0.650300000000     0          
H1       H      0.440100000000     0.440100000000     0.636000000000     0          
O1       O      0.341700000000     0.223900000000     0.628450000000     0          
C1       C      0.351600000000     0.215650000000     0.648400000000     0          
C2       C      0.339000000000     0.193500000000     0.661000000000     0          
C3       C      0.317250000000     0.182750000000     0.650300000000     0          
H1       H      0.309900000000     0.190100000000     0.636000000000     0          
O1       O      0.026100000000     0.408300000000     0.871550000000     0          
C3       C      0.067250000000     0.432750000000     0.849700000000     0          
H1       H      0.059900000000     0.440100000000     0.864000000000     0          
O1       O      0.341700000000     0.276100000000     0.871550000000     0          
C1       C      0.351600000000     0.284350000000     0.851600000000     0          
C2       C      0.339000000000     0.306500000000     0.839000000000     0          
C3       C      0.317250000000     0.317250000000     0.849700000000     0          
H1       H      0.309900000000     0.309900000000     0.864000000000     0          
O1       O      0.473900000000     0.091700000000     0.871550000000     0          
C3       C      0.432750000000     0.067250000000     0.849700000000     0          
H1       H      0.440100000000     0.059900000000     0.864000000000     0          
O1       O      0.158300000000     0.223900000000     0.871550000000     0          
C1       C      0.148400000000     0.215650000000     0.851600000000     0          
C2       C      0.161000000000     0.193500000000     0.839000000000     0          
C3       C      0.182750000000     0.182750000000     0.849700000000     0          
H1       H      0.190100000000     0.190100000000     0.864000000000     0          
O1       O      0.378450000000     0.276100000000     0.591700000000     0          
C1       C      0.398400000000     0.284350000000     0.601600000000     0          
C2       C      0.411000000000     0.306500000000     0.589000000000     0          
O1       O      0.378450000000     0.223900000000     0.908300000000     0          
C1       C      0.398400000000     0.215650000000     0.898400000000     0          
C2       C      0.411000000000     0.193500000000     0.911000000000     0          
O1       O      0.026100000000     0.128450000000     0.908300000000     0          
C3       C      0.067250000000     0.150300000000     0.932750000000     0          
H1       H      0.059900000000     0.136000000000     0.940100000000     0          
O1       O      0.121550000000     0.276100000000     0.908300000000     0          
C1       C      0.101600000000     0.284350000000     0.898400000000     0          
C2       C      0.089000000000     0.306500000000     0.911000000000     0          
O1       O      0.473900000000     0.371550000000     0.908300000000     0          
C3       C      0.432750000000     0.349700000000     0.932750000000     0          
H1       H      0.440100000000     0.364000000000     0.940100000000     0          
O1       O      0.121550000000     0.223900000000     0.591700000000     0          
C1       C      0.101600000000     0.215650000000     0.601600000000     0          
C2       C      0.089000000000     0.193500000000     0.589000000000     0          
O1       O      0.026100000000     0.371550000000     0.591700000000     0          
C3       C      0.067250000000     0.349700000000     0.567250000000     0          
H1       H      0.059900000000     0.364000000000     0.559900000000     0          
O1       O      0.473900000000     0.128450000000     0.591700000000     0          
C3       C      0.432750000000     0.150300000000     0.567250000000     0          
H1       H      0.440100000000     0.136000000000     0.559900000000     0          
Cu1      Cu     0.392650000000     0.142650000000     0.750000000000     0          
O1       O      0.408300000000     0.121550000000     0.723900000000     0          
Cu1      Cu     0.107350000000     0.142650000000     0.750000000000     0          
O1       O      0.128450000000     0.158300000000     0.723900000000     0          
C3       C      0.150300000000     0.182750000000     0.682750000000     0          
H1       H      0.136000000000     0.190100000000     0.690100000000     0          
Cu1      Cu     0.107350000000     0.357350000000     0.750000000000     0          
O1       O      0.091700000000     0.378450000000     0.723900000000     0          
Cu1      Cu     0.392650000000     0.357350000000     0.750000000000     0          
O1       O      0.371550000000     0.341700000000     0.723900000000     0          
C3       C      0.349700000000     0.317250000000     0.682750000000     0          
H1       H      0.364000000000     0.309900000000     0.690100000000     0          
O1       O      0.408300000000     0.378450000000     0.776100000000     0          
O1       O      0.371550000000     0.158300000000     0.776100000000     0          
C3       C      0.349700000000     0.182750000000     0.817250000000     0          
H1       H      0.364000000000     0.190100000000     0.809900000000     0          
O1       O      0.091700000000     0.121550000000     0.776100000000     0          
O1       O      0.128450000000     0.341700000000     0.776100000000     0          
C3       C      0.150300000000     0.317250000000     0.817250000000     0          
H1       H      0.136000000000     0.309900000000     0.809900000000     0          
Cu1      Cu     0.250000000000     0.142650000000     0.892650000000     0          
O1       O      0.223900000000     0.158300000000     0.871550000000     0          
C1       C      0.215650000000     0.148400000000     0.851600000000     0          
C2       C      0.193500000000     0.161000000000     0.839000000000     0          
Cu1      Cu     0.107350000000     0.000000000000     0.892650000000     0          
O1       O      0.091700000000     0.473900000000     0.871550000000     0          
Cu1      Cu     0.250000000000     0.357350000000     0.892650000000     0          
O1       O      0.276100000000     0.341700000000     0.871550000000     0          
C1       C      0.284350000000     0.351600000000     0.851600000000     0          
C2       C      0.306500000000     0.339000000000     0.839000000000     0          
Cu1      Cu     0.392650000000     0.000000000000     0.892650000000     0          
O1       O      0.408300000000     0.026100000000     0.871550000000     0          
Cu1      Cu     0.250000000000     0.357350000000     0.607350000000     0          
O1       O      0.223900000000     0.341700000000     0.628450000000     0          
C1       C      0.215650000000     0.351600000000     0.648400000000     0          
C2       C      0.193500000000     0.339000000000     0.661000000000     0          
Cu1      Cu     0.392650000000     0.000000000000     0.607350000000     0          
O1       O      0.408300000000     0.473900000000     0.628450000000     0          
Cu1      Cu     0.250000000000     0.142650000000     0.607350000000     0          
O1       O      0.276100000000     0.158300000000     0.628450000000     0          
C1       C      0.284350000000     0.148400000000     0.648400000000     0          
C2       C      0.306500000000     0.161000000000     0.661000000000     0          
Cu1      Cu     0.107350000000     0.000000000000     0.607350000000     0          
O1       O      0.091700000000     0.026100000000     0.628450000000     0          
O1       O      0.371550000000     0.473900000000     0.908300000000     0          
C3       C      0.349700000000     0.432750000000     0.932750000000     0          
H1       H      0.364000000000     0.440100000000     0.940100000000     0          
O1       O      0.371550000000     0.026100000000     0.591700000000     0          
C3       C      0.349700000000     0.067250000000     0.567250000000     0          
H1       H      0.364000000000     0.059900000000     0.559900000000     0          
O1       O      0.223900000000     0.121550000000     0.591700000000     0          
C1       C      0.215650000000     0.101600000000     0.601600000000     0          
C2       C      0.193500000000     0.089000000000     0.589000000000     0          
O1       O      0.128450000000     0.473900000000     0.591700000000     0          
C3       C      0.150300000000     0.432750000000     0.567250000000     0          
H1       H      0.136000000000     0.440100000000     0.559900000000     0          
O1       O      0.276100000000     0.378450000000     0.591700000000     0          
C1       C      0.284350000000     0.398400000000     0.601600000000     0          
C2       C      0.306500000000     0.411000000000     0.589000000000     0          
O1       O      0.128450000000     0.026100000000     0.908300000000     0          
C3       C      0.150300000000     0.067250000000     0.932750000000     0          
H1       H      0.136000000000     0.059900000000     0.940100000000     0          
O1       O      0.223900000000     0.378450000000     0.908300000000     0          
C1       C      0.215650000000     0.398400000000     0.898400000000     0          
C2       C      0.193500000000     0.411000000000     0.911000000000     0          
O1       O      0.276100000000     0.121550000000     0.908300000000     0          
C1       C      0.284350000000     0.101600000000     0.898400000000     0          
C2       C      0.306500000000     0.089000000000     0.911000000000     0          
O1       O      0.091700000000     0.378450000000     0.776100000000     0          
O1       O      0.371550000000     0.341700000000     0.776100000000     0          
C3       C      0.349700000000     0.317250000000     0.817250000000     0          
H1       H      0.364000000000     0.309900000000     0.809900000000     0          
O1       O      0.408300000000     0.121550000000     0.776100000000     0          
O1       O      0.128450000000     0.158300000000     0.776100000000     0          
C3       C      0.150300000000     0.182750000000     0.817250000000     0          
H1       H      0.136000000000     0.190100000000     0.809900000000     0          
O1       O      0.091700000000     0.121550000000     0.723900000000     0          
O1       O      0.128450000000     0.341700000000     0.723900000000     0          
C3       C      0.150300000000     0.317250000000     0.682750000000     0          
H1       H      0.136000000000     0.309900000000     0.690100000000     0          
O1       O      0.408300000000     0.378450000000     0.723900000000     0          
O1       O      0.371550000000     0.158300000000     0.723900000000     0          
C3       C      0.349700000000     0.182750000000     0.682750000000     0          
H1       H      0.364000000000     0.190100000000     0.690100000000     0          
O1       O      0.276100000000     0.341700000000     0.628450000000     0          
C1       C      0.284350000000     0.351600000000     0.648400000000     0          
C2       C      0.306500000000     0.339000000000     0.661000000000     0          
O1       O      0.408300000000     0.026100000000     0.628450000000     0          
O1       O      0.223900000000     0.158300000000     0.628450000000     0          
C1       C      0.215650000000     0.148400000000     0.648400000000     0          
C2       C      0.193500000000     0.161000000000     0.661000000000     0          
O1       O      0.091700000000     0.473900000000     0.628450000000     0          
O1       O      0.276100000000     0.158300000000     0.871550000000     0          
C1       C      0.284350000000     0.148400000000     0.851600000000     0          
C2       C      0.306500000000     0.161000000000     0.839000000000     0          
O1       O      0.091700000000     0.026100000000     0.871550000000     0          
O1       O      0.223900000000     0.341700000000     0.871550000000     0          
C1       C      0.215650000000     0.351600000000     0.851600000000     0          
C2       C      0.193500000000     0.339000000000     0.839000000000     0          
O1       O      0.408300000000     0.473900000000     0.871550000000     0          
O1       O      0.128450000000     0.026100000000     0.591700000000     0          
C3       C      0.150300000000     0.067250000000     0.567250000000     0          
H1       H      0.136000000000     0.059900000000     0.559900000000     0          
O1       O      0.128450000000     0.473900000000     0.908300000000     0          
C3       C      0.150300000000     0.432750000000     0.932750000000     0          
H1       H      0.136000000000     0.440100000000     0.940100000000     0          
O1       O      0.276100000000     0.378450000000     0.908300000000     0          
C1       C      0.284350000000     0.398400000000     0.898400000000     0          
C2       C      0.306500000000     0.411000000000     0.911000000000     0          
O1       O      0.371550000000     0.026100000000     0.908300000000     0          
C3       C      0.349700000000     0.067250000000     0.932750000000     0          
H1       H      0.364000000000     0.059900000000     0.940100000000     0          
O1       O      0.223900000000     0.121550000000     0.908300000000     0          
C1       C      0.215650000000     0.101600000000     0.898400000000     0          
C2       C      0.193500000000     0.089000000000     0.911000000000     0          
O1       O      0.371550000000     0.473900000000     0.591700000000     0          
C3       C      0.349700000000     0.432750000000     0.567250000000     0          
H1       H      0.364000000000     0.440100000000     0.559900000000     0          
O1       O      0.276100000000     0.121550000000     0.591700000000     0          
C1       C      0.284350000000     0.101600000000     0.601600000000     0          
C2       C      0.306500000000     0.089000000000     0.589000000000     0          
O1       O      0.223900000000     0.378450000000     0.591700000000     0          
C1       C      0.215650000000     0.398400000000     0.601600000000     0          
C2       C      0.193500000000     0.411000000000     0.589000000000     0          
Cu1      Cu     0.392650000000     0.392650000000     0.500000000000     0          
O1       O      0.408300000000     0.371550000000     0.973900000000     0          
Cu1      Cu     0.107350000000     0.392650000000     0.500000000000     0          
O1       O      0.128450000000     0.408300000000     0.973900000000     0          
Cu1      Cu     0.107350000000     0.107350000000     0.500000000000     0          
O1       O      0.091700000000     0.128450000000     0.973900000000     0          
Cu1      Cu     0.392650000000     0.107350000000     0.500000000000     0          
O1       O      0.371550000000     0.091700000000     0.973900000000     0          
O1       O      0.408300000000     0.128450000000     0.526100000000     0          
O1       O      0.371550000000     0.408300000000     0.526100000000     0          
O1       O      0.091700000000     0.371550000000     0.526100000000     0          
O1       O      0.128450000000     0.091700000000     0.526100000000     0          
Cu1      Cu     0.250000000000     0.392650000000     0.642650000000     0          
O1       O      0.223900000000     0.408300000000     0.621550000000     0          
Cu1      Cu     0.107350000000     0.250000000000     0.642650000000     0          
O1       O      0.091700000000     0.223900000000     0.621550000000     0          
Cu1      Cu     0.250000000000     0.107350000000     0.642650000000     0          
O1       O      0.276100000000     0.091700000000     0.621550000000     0          
Cu1      Cu     0.392650000000     0.250000000000     0.642650000000     0          
O1       O      0.408300000000     0.276100000000     0.621550000000     0          
Cu1      Cu     0.250000000000     0.107350000000     0.857350000000     0          
O1       O      0.223900000000     0.091700000000     0.878450000000     0          
Cu1      Cu     0.392650000000     0.250000000000     0.857350000000     0          
O1       O      0.408300000000     0.223900000000     0.878450000000     0          
Cu1      Cu     0.250000000000     0.392650000000     0.857350000000     0          
O1       O      0.276100000000     0.408300000000     0.878450000000     0          
Cu1      Cu     0.107350000000     0.250000000000     0.857350000000     0          
O1       O      0.091700000000     0.276100000000     0.878450000000     0          
O1       O      0.371550000000     0.223900000000     0.658300000000     0          
O1       O      0.371550000000     0.276100000000     0.841700000000     0          
O1       O      0.223900000000     0.371550000000     0.841700000000     0          
O1       O      0.128450000000     0.223900000000     0.841700000000     0          
O1       O      0.276100000000     0.128450000000     0.841700000000     0          
O1       O      0.128450000000     0.276100000000     0.658300000000     0          
O1       O      0.223900000000     0.128450000000     0.658300000000     0          
O1       O      0.276100000000     0.371550000000     0.658300000000     0          
O1       O      0.091700000000     0.128450000000     0.526100000000     0          
O1       O      0.371550000000     0.091700000000     0.526100000000     0          
O1       O      0.408300000000     0.371550000000     0.526100000000     0          
O1       O      0.128450000000     0.408300000000     0.526100000000     0          
O1       O      0.091700000000     0.371550000000     0.973900000000     0          
O1       O      0.128450000000     0.091700000000     0.973900000000     0          
O1       O      0.408300000000     0.128450000000     0.973900000000     0          
O1       O      0.371550000000     0.408300000000     0.973900000000     0          
O1       O      0.276100000000     0.091700000000     0.878450000000     0          
O1       O      0.408300000000     0.276100000000     0.878450000000     0          
O1       O      0.223900000000     0.408300000000     0.878450000000     0          
O1       O      0.091700000000     0.223900000000     0.878450000000     0          
O1       O      0.276100000000     0.408300000000     0.621550000000     0          
O1       O      0.091700000000     0.276100000000     0.621550000000     0          
O1       O      0.223900000000     0.091700000000     0.621550000000     0          
O1       O      0.408300000000     0.223900000000     0.621550000000     0          
O1       O      0.128450000000     0.276100000000     0.841700000000     0          
O1       O      0.128450000000     0.223900000000     0.658300000000     0          
O1       O      0.276100000000     0.128450000000     0.658300000000     0          
O1       O      0.371550000000     0.276100000000     0.658300000000     0          
O1       O      0.223900000000     0.371550000000     0.658300000000     0          
O1       O      0.371550000000     0.223900000000     0.841700000000     0          
O1       O      0.276100000000     0.371550000000     0.841700000000     0          
O1       O      0.223900000000     0.128450000000     0.841700000000     0          
Cu1      Cu     0.142650000000     0.642650000000     0.000000000000     0          
O1       O      0.158300000000     0.621550000000     0.473900000000     0          
C1       C      0.148400000000     0.601600000000     0.465650000000     0          
C2       C      0.161000000000     0.589000000000     0.443500000000     0          
C3       C      0.182750000000     0.599700000000     0.432750000000     0          
H1       H      0.190100000000     0.614000000000     0.440100000000     0          
Cu1      Cu     0.357350000000     0.642650000000     0.000000000000     0          
O1       O      0.378450000000     0.658300000000     0.473900000000     0          
C1       C      0.398400000000     0.648400000000     0.465650000000     0          
C2       C      0.411000000000     0.661000000000     0.443500000000     0          
C3       C      0.400300000000     0.682750000000     0.432750000000     0          
H1       H      0.386000000000     0.690100000000     0.440100000000     0          
Cu1      Cu     0.357350000000     0.857350000000     0.000000000000     0          
O1       O      0.341700000000     0.878450000000     0.473900000000     0          
C1       C      0.351600000000     0.898400000000     0.465650000000     0          
C2       C      0.339000000000     0.911000000000     0.443500000000     0          
C3       C      0.317250000000     0.900300000000     0.432750000000     0          
H1       H      0.309900000000     0.886000000000     0.440100000000     0          
Cu1      Cu     0.142650000000     0.857350000000     0.000000000000     0          
O1       O      0.121550000000     0.841700000000     0.473900000000     0          
C1       C      0.101600000000     0.851600000000     0.465650000000     0          
C2       C      0.089000000000     0.839000000000     0.443500000000     0          
C3       C      0.099700000000     0.817250000000     0.432750000000     0          
H1       H      0.114000000000     0.809900000000     0.440100000000     0          
O1       O      0.158300000000     0.878450000000     0.026100000000     0          
C1       C      0.148400000000     0.898400000000     0.034350000000     0          
C2       C      0.161000000000     0.911000000000     0.056500000000     0          
C3       C      0.182750000000     0.900300000000     0.067250000000     0          
H1       H      0.190100000000     0.886000000000     0.059900000000     0          
O1       O      0.121550000000     0.658300000000     0.026100000000     0          
C1       C      0.101600000000     0.648400000000     0.034350000000     0          
C2       C      0.089000000000     0.661000000000     0.056500000000     0          
C3       C      0.099700000000     0.682750000000     0.067250000000     0          
H1       H      0.114000000000     0.690100000000     0.059900000000     0          
O1       O      0.341700000000     0.621550000000     0.026100000000     0          
C1       C      0.351600000000     0.601600000000     0.034350000000     0          
C2       C      0.339000000000     0.589000000000     0.056500000000     0          
C3       C      0.317250000000     0.599700000000     0.067250000000     0          
H1       H      0.309900000000     0.614000000000     0.059900000000     0          
O1       O      0.378450000000     0.841700000000     0.026100000000     0          
C1       C      0.398400000000     0.851600000000     0.034350000000     0          
C2       C      0.411000000000     0.839000000000     0.056500000000     0          
C3       C      0.400300000000     0.817250000000     0.067250000000     0          
H1       H      0.386000000000     0.809900000000     0.059900000000     0          
Cu1      Cu     0.000000000000     0.642650000000     0.142650000000     0          
O1       O      0.473900000000     0.658300000000     0.121550000000     0          
C1       C      0.465650000000     0.648400000000     0.101600000000     0          
C2       C      0.443500000000     0.661000000000     0.089000000000     0          
C3       C      0.432750000000     0.682750000000     0.099700000000     0          
H1       H      0.440100000000     0.690100000000     0.114000000000     0          
Cu1      Cu     0.357350000000     0.500000000000     0.142650000000     0          
O1       O      0.341700000000     0.973900000000     0.121550000000     0          
C1       C      0.351600000000     0.965650000000     0.101600000000     0          
C2       C      0.339000000000     0.943500000000     0.089000000000     0          
C3       C      0.317250000000     0.932750000000     0.099700000000     0          
H1       H      0.309900000000     0.940100000000     0.114000000000     0          
Cu1      Cu     0.000000000000     0.857350000000     0.142650000000     0          
O1       O      0.026100000000     0.841700000000     0.121550000000     0          
C1       C      0.034350000000     0.851600000000     0.101600000000     0          
C2       C      0.056500000000     0.839000000000     0.089000000000     0          
C3       C      0.067250000000     0.817250000000     0.099700000000     0          
H1       H      0.059900000000     0.809900000000     0.114000000000     0          
Cu1      Cu     0.142650000000     0.500000000000     0.142650000000     0          
O1       O      0.158300000000     0.526100000000     0.121550000000     0          
C1       C      0.148400000000     0.534350000000     0.101600000000     0          
C2       C      0.161000000000     0.556500000000     0.089000000000     0          
C3       C      0.182750000000     0.567250000000     0.099700000000     0          
H1       H      0.190100000000     0.559900000000     0.114000000000     0          
Cu1      Cu     0.000000000000     0.857350000000     0.357350000000     0          
O1       O      0.473900000000     0.841700000000     0.378450000000     0          
C1       C      0.465650000000     0.851600000000     0.398400000000     0          
C2       C      0.443500000000     0.839000000000     0.411000000000     0          
C3       C      0.432750000000     0.817250000000     0.400300000000     0          
H1       H      0.440100000000     0.809900000000     0.386000000000     0          
Cu1      Cu     0.142650000000     0.500000000000     0.357350000000     0          
O1       O      0.158300000000     0.973900000000     0.378450000000     0          
C1       C      0.148400000000     0.965650000000     0.398400000000     0          
C2       C      0.161000000000     0.943500000000     0.411000000000     0          
C3       C      0.182750000000     0.932750000000     0.400300000000     0          
H1       H      0.190100000000     0.940100000000     0.386000000000     0          
Cu1      Cu     0.000000000000     0.642650000000     0.357350000000     0          
O1       O      0.026100000000     0.658300000000     0.378450000000     0          
C1       C      0.034350000000     0.648400000000     0.398400000000     0          
C2       C      0.056500000000     0.661000000000     0.411000000000     0          
C3       C      0.067250000000     0.682750000000     0.400300000000     0          
H1       H      0.059900000000     0.690100000000     0.386000000000     0          
Cu1      Cu     0.357350000000     0.500000000000     0.357350000000     0          
O1       O      0.341700000000     0.526100000000     0.378450000000     0          
C1       C      0.351600000000     0.534350000000     0.398400000000     0          
C2       C      0.339000000000     0.556500000000     0.411000000000     0          
C3       C      0.317250000000     0.567250000000     0.400300000000     0          
H1       H      0.309900000000     0.559900000000     0.386000000000     0          
O1       O      0.121550000000     0.973900000000     0.158300000000     0          
C1       C      0.101600000000     0.965650000000     0.148400000000     0          
C2       C      0.089000000000     0.943500000000     0.161000000000     0          
C3       C      0.099700000000     0.932750000000     0.182750000000     0          
H1       H      0.114000000000     0.940100000000     0.190100000000     0          
O1       O      0.121550000000     0.526100000000     0.341700000000     0          
C1       C      0.101600000000     0.534350000000     0.351600000000     0          
C2       C      0.089000000000     0.556500000000     0.339000000000     0          
C3       C      0.099700000000     0.567250000000     0.317250000000     0          
H1       H      0.114000000000     0.559900000000     0.309900000000     0          
O1       O      0.473900000000     0.621550000000     0.341700000000     0          
C1       C      0.465650000000     0.601600000000     0.351600000000     0          
C2       C      0.443500000000     0.589000000000     0.339000000000     0          
C3       C      0.432750000000     0.599700000000     0.317250000000     0          
H1       H      0.440100000000     0.614000000000     0.309900000000     0          
O1       O      0.378450000000     0.973900000000     0.341700000000     0          
C1       C      0.398400000000     0.965650000000     0.351600000000     0          
C2       C      0.411000000000     0.943500000000     0.339000000000     0          
C3       C      0.400300000000     0.932750000000     0.317250000000     0          
H1       H      0.386000000000     0.940100000000     0.309900000000     0          
O1       O      0.026100000000     0.878450000000     0.341700000000     0          
C1       C      0.034350000000     0.898400000000     0.351600000000     0          
C2       C      0.056500000000     0.911000000000     0.339000000000     0          
C3       C      0.067250000000     0.900300000000     0.317250000000     0          
H1       H      0.059900000000     0.886000000000     0.309900000000     0          
O1       O      0.378450000000     0.526100000000     0.158300000000     0          
C1       C      0.398400000000     0.534350000000     0.148400000000     0          
C2       C      0.411000000000     0.556500000000     0.161000000000     0          
C3       C      0.400300000000     0.567250000000     0.182750000000     0          
H1       H      0.386000000000     0.559900000000     0.190100000000     0          
O1       O      0.473900000000     0.878450000000     0.158300000000     0          
C1       C      0.465650000000     0.898400000000     0.148400000000     0          
C2       C      0.443500000000     0.911000000000     0.161000000000     0          
C3       C      0.432750000000     0.900300000000     0.182750000000     0          
H1       H      0.440100000000     0.886000000000     0.190100000000     0          
O1       O      0.026100000000     0.621550000000     0.158300000000     0          
C1       C      0.034350000000     0.601600000000     0.148400000000     0          
C2       C      0.056500000000     0.589000000000     0.161000000000     0          
C3       C      0.067250000000     0.599700000000     0.182750000000     0          
H1       H      0.059900000000     0.614000000000     0.190100000000     0          
O1       O      0.341700000000     0.878450000000     0.026100000000     0          
C1       C      0.351600000000     0.898400000000     0.034350000000     0          
C2       C      0.339000000000     0.911000000000     0.056500000000     0          
C3       C      0.317250000000     0.900300000000     0.067250000000     0          
H1       H      0.309900000000     0.886000000000     0.059900000000     0          
O1       O      0.121550000000     0.841700000000     0.026100000000     0          
C1       C      0.101600000000     0.851600000000     0.034350000000     0          
C2       C      0.089000000000     0.839000000000     0.056500000000     0          
C3       C      0.099700000000     0.817250000000     0.067250000000     0          
H1       H      0.114000000000     0.809900000000     0.059900000000     0          
O1       O      0.158300000000     0.621550000000     0.026100000000     0          
C1       C      0.148400000000     0.601600000000     0.034350000000     0          
C2       C      0.161000000000     0.589000000000     0.056500000000     0          
C3       C      0.182750000000     0.599700000000     0.067250000000     0          
H1       H      0.190100000000     0.614000000000     0.059900000000     0          
O1       O      0.378450000000     0.658300000000     0.026100000000     0          
C1       C      0.398400000000     0.648400000000     0.034350000000     0          
C2       C      0.411000000000     0.661000000000     0.056500000000     0          
C3       C      0.400300000000     0.682750000000     0.067250000000     0          
H1       H      0.386000000000     0.690100000000     0.059900000000     0          
O1       O      0.341700000000     0.621550000000     0.473900000000     0          
C1       C      0.351600000000     0.601600000000     0.465650000000     0          
C2       C      0.339000000000     0.589000000000     0.443500000000     0          
C3       C      0.317250000000     0.599700000000     0.432750000000     0          
H1       H      0.309900000000     0.614000000000     0.440100000000     0          
O1       O      0.378450000000     0.841700000000     0.473900000000     0          
C1       C      0.398400000000     0.851600000000     0.465650000000     0          
C2       C      0.411000000000     0.839000000000     0.443500000000     0          
C3       C      0.400300000000     0.817250000000     0.432750000000     0          
H1       H      0.386000000000     0.809900000000     0.440100000000     0          
O1       O      0.158300000000     0.878450000000     0.473900000000     0          
C1       C      0.148400000000     0.898400000000     0.465650000000     0          
C2       C      0.161000000000     0.911000000000     0.443500000000     0          
C3       C      0.182750000000     0.900300000000     0.432750000000     0          
H1       H      0.190100000000     0.886000000000     0.440100000000     0          
O1       O      0.121550000000     0.658300000000     0.473900000000     0          
C1       C      0.101600000000     0.648400000000     0.465650000000     0          
C2       C      0.089000000000     0.661000000000     0.443500000000     0          
C3       C      0.099700000000     0.682750000000     0.432750000000     0          
H1       H      0.114000000000     0.690100000000     0.440100000000     0          
O1       O      0.026100000000     0.841700000000     0.378450000000     0          
C1       C      0.034350000000     0.851600000000     0.398400000000     0          
C2       C      0.056500000000     0.839000000000     0.411000000000     0          
C3       C      0.067250000000     0.817250000000     0.400300000000     0          
H1       H      0.059900000000     0.809900000000     0.386000000000     0          
O1       O      0.158300000000     0.526100000000     0.378450000000     0          
C1       C      0.148400000000     0.534350000000     0.398400000000     0          
C2       C      0.161000000000     0.556500000000     0.411000000000     0          
C3       C      0.182750000000     0.567250000000     0.400300000000     0          
H1       H      0.190100000000     0.559900000000     0.386000000000     0          
O1       O      0.473900000000     0.658300000000     0.378450000000     0          
C1       C      0.465650000000     0.648400000000     0.398400000000     0          
C2       C      0.443500000000     0.661000000000     0.411000000000     0          
C3       C      0.432750000000     0.682750000000     0.400300000000     0          
H1       H      0.440100000000     0.690100000000     0.386000000000     0          
O1       O      0.341700000000     0.973900000000     0.378450000000     0          
C1       C      0.351600000000     0.965650000000     0.398400000000     0          
C2       C      0.339000000000     0.943500000000     0.411000000000     0          
C3       C      0.317250000000     0.932750000000     0.400300000000     0          
H1       H      0.309900000000     0.940100000000     0.386000000000     0          
O1       O      0.026100000000     0.658300000000     0.121550000000     0          
C1       C      0.034350000000     0.648400000000     0.101600000000     0          
C2       C      0.056500000000     0.661000000000     0.089000000000     0          
C3       C      0.067250000000     0.682750000000     0.099700000000     0          
H1       H      0.059900000000     0.690100000000     0.114000000000     0          
O1       O      0.341700000000     0.526100000000     0.121550000000     0          
C1       C      0.351600000000     0.534350000000     0.101600000000     0          
C2       C      0.339000000000     0.556500000000     0.089000000000     0          
C3       C      0.317250000000     0.567250000000     0.099700000000     0          
H1       H      0.309900000000     0.559900000000     0.114000000000     0          
O1       O      0.473900000000     0.841700000000     0.121550000000     0          
C1       C      0.465650000000     0.851600000000     0.101600000000     0          
C2       C      0.443500000000     0.839000000000     0.089000000000     0          
C3       C      0.432750000000     0.817250000000     0.099700000000     0          
H1       H      0.440100000000     0.809900000000     0.114000000000     0          
O1       O      0.158300000000     0.973900000000     0.121550000000     0          
C1       C      0.148400000000     0.965650000000     0.101600000000     0          
C2       C      0.161000000000     0.943500000000     0.089000000000     0          
C3       C      0.182750000000     0.932750000000     0.099700000000     0          
H1       H      0.190100000000     0.940100000000     0.114000000000     0          
O1       O      0.378450000000     0.526100000000     0.341700000000     0          
C1       C      0.398400000000     0.534350000000     0.351600000000     0          
C2       C      0.411000000000     0.556500000000     0.339000000000     0          
C3       C      0.400300000000     0.567250000000     0.317250000000     0          
H1       H      0.386000000000     0.559900000000     0.309900000000     0          
O1       O      0.378450000000     0.973900000000     0.158300000000     0          
C1       C      0.398400000000     0.965650000000     0.148400000000     0          
C2       C      0.411000000000     0.943500000000     0.161000000000     0          
C3       C      0.400300000000     0.932750000000     0.182750000000     0          
H1       H      0.386000000000     0.940100000000     0.190100000000     0          
O1       O      0.026100000000     0.878450000000     0.158300000000     0          
C1       C      0.034350000000     0.898400000000     0.148400000000     0          
C2       C      0.056500000000     0.911000000000     0.161000000000     0          
C3       C      0.067250000000     0.900300000000     0.182750000000     0          
H1       H      0.059900000000     0.886000000000     0.190100000000     0          
O1       O      0.121550000000     0.526100000000     0.158300000000     0          
C1       C      0.101600000000     0.534350000000     0.148400000000     0          
C2       C      0.089000000000     0.556500000000     0.161000000000     0          
C3       C      0.099700000000     0.567250000000     0.182750000000     0          
H1       H      0.114000000000     0.559900000000     0.190100000000     0          
O1       O      0.473900000000     0.621550000000     0.158300000000     0          
C1       C      0.465650000000     0.601600000000     0.148400000000     0          
C2       C      0.443500000000     0.589000000000     0.161000000000     0          
C3       C      0.432750000000     0.599700000000     0.182750000000     0          
H1       H      0.440100000000     0.614000000000     0.190100000000     0          
O1       O      0.121550000000     0.973900000000     0.341700000000     0          
C1       C      0.101600000000     0.965650000000     0.351600000000     0          
C2       C      0.089000000000     0.943500000000     0.339000000000     0          
C3       C      0.099700000000     0.932750000000     0.317250000000     0          
H1       H      0.114000000000     0.940100000000     0.309900000000     0          
O1       O      0.026100000000     0.621550000000     0.341700000000     0          
C1       C      0.034350000000     0.601600000000     0.351600000000     0          
C2       C      0.056500000000     0.589000000000     0.339000000000     0          
C3       C      0.067250000000     0.599700000000     0.317250000000     0          
H1       H      0.059900000000     0.614000000000     0.309900000000     0          
O1       O      0.473900000000     0.878450000000     0.341700000000     0          
C1       C      0.465650000000     0.898400000000     0.351600000000     0          
C2       C      0.443500000000     0.911000000000     0.339000000000     0          
C3       C      0.432750000000     0.900300000000     0.317250000000     0          
H1       H      0.440100000000     0.886000000000     0.309900000000     0          
Cu1      Cu     0.142650000000     0.892650000000     0.250000000000     0          
O1       O      0.158300000000     0.871550000000     0.223900000000     0          
C1       C      0.148400000000     0.851600000000     0.215650000000     0          
C2       C      0.161000000000     0.839000000000     0.193500000000     0          
C3       C      0.182750000000     0.849700000000     0.182750000000     0          
H1       H      0.190100000000     0.864000000000     0.190100000000     0          
Cu1      Cu     0.357350000000     0.892650000000     0.250000000000     0          
O1       O      0.378450000000     0.908300000000     0.223900000000     0          
C1       C      0.398400000000     0.898400000000     0.215650000000     0          
C2       C      0.411000000000     0.911000000000     0.193500000000     0          
Cu1      Cu     0.357350000000     0.607350000000     0.250000000000     0          
O1       O      0.341700000000     0.628450000000     0.223900000000     0          
C1       C      0.351600000000     0.648400000000     0.215650000000     0          
C2       C      0.339000000000     0.661000000000     0.193500000000     0          
C3       C      0.317250000000     0.650300000000     0.182750000000     0          
H1       H      0.309900000000     0.636000000000     0.190100000000     0          
Cu1      Cu     0.142650000000     0.607350000000     0.250000000000     0          
O1       O      0.121550000000     0.591700000000     0.223900000000     0          
C1       C      0.101600000000     0.601600000000     0.215650000000     0          
C2       C      0.089000000000     0.589000000000     0.193500000000     0          
O1       O      0.158300000000     0.628450000000     0.276100000000     0          
C1       C      0.148400000000     0.648400000000     0.284350000000     0          
C2       C      0.161000000000     0.661000000000     0.306500000000     0          
C3       C      0.182750000000     0.650300000000     0.317250000000     0          
H1       H      0.190100000000     0.636000000000     0.309900000000     0          
O1       O      0.121550000000     0.908300000000     0.276100000000     0          
C1       C      0.101600000000     0.898400000000     0.284350000000     0          
C2       C      0.089000000000     0.911000000000     0.306500000000     0          
O1       O      0.341700000000     0.871550000000     0.276100000000     0          
C1       C      0.351600000000     0.851600000000     0.284350000000     0          
C2       C      0.339000000000     0.839000000000     0.306500000000     0          
C3       C      0.317250000000     0.849700000000     0.317250000000     0          
H1       H      0.309900000000     0.864000000000     0.309900000000     0          
O1       O      0.378450000000     0.591700000000     0.276100000000     0          
C1       C      0.398400000000     0.601600000000     0.284350000000     0          
C2       C      0.411000000000     0.589000000000     0.306500000000     0          
Cu1      Cu     0.000000000000     0.892650000000     0.392650000000     0          
O1       O      0.473900000000     0.908300000000     0.371550000000     0          
C3       C      0.432750000000     0.932750000000     0.349700000000     0          
H1       H      0.440100000000     0.940100000000     0.364000000000     0          
Cu1      Cu     0.357350000000     0.750000000000     0.392650000000     0          
O1       O      0.341700000000     0.723900000000     0.371550000000     0          
C1       C      0.351600000000     0.715650000000     0.351600000000     0          
C2       C      0.339000000000     0.693500000000     0.339000000000     0          
C3       C      0.317250000000     0.682750000000     0.349700000000     0          
H1       H      0.309900000000     0.690100000000     0.364000000000     0          
Cu1      Cu     0.000000000000     0.607350000000     0.392650000000     0          
O1       O      0.026100000000     0.591700000000     0.371550000000     0          
C3       C      0.067250000000     0.567250000000     0.349700000000     0          
H1       H      0.059900000000     0.559900000000     0.364000000000     0          
Cu1      Cu     0.142650000000     0.750000000000     0.392650000000     0          
O1       O      0.158300000000     0.776100000000     0.371550000000     0          
C1       C      0.148400000000     0.784350000000     0.351600000000     0          
C2       C      0.161000000000     0.806500000000     0.339000000000     0          
C3       C      0.182750000000     0.817250000000     0.349700000000     0          
H1       H      0.190100000000     0.809900000000     0.364000000000     0          
Cu1      Cu     0.000000000000     0.607350000000     0.107350000000     0          
O1       O      0.473900000000     0.591700000000     0.128450000000     0          
C3       C      0.432750000000     0.567250000000     0.150300000000     0          
H1       H      0.440100000000     0.559900000000     0.136000000000     0          
Cu1      Cu     0.142650000000     0.750000000000     0.107350000000     0          
O1       O      0.158300000000     0.723900000000     0.128450000000     0          
C1       C      0.148400000000     0.715650000000     0.148400000000     0          
C2       C      0.161000000000     0.693500000000     0.161000000000     0          
C3       C      0.182750000000     0.682750000000     0.150300000000     0          
H1       H      0.190100000000     0.690100000000     0.136000000000     0          
Cu1      Cu     0.000000000000     0.892650000000     0.107350000000     0          
O1       O      0.026100000000     0.908300000000     0.128450000000     0          
C3       C      0.067250000000     0.932750000000     0.150300000000     0          
H1       H      0.059900000000     0.940100000000     0.136000000000     0          
Cu1      Cu     0.357350000000     0.750000000000     0.107350000000     0          
O1       O      0.341700000000     0.776100000000     0.128450000000     0          
C1       C      0.351600000000     0.784350000000     0.148400000000     0          
C2       C      0.339000000000     0.806500000000     0.161000000000     0          
C3       C      0.317250000000     0.817250000000     0.150300000000     0          
H1       H      0.309900000000     0.809900000000     0.136000000000     0          
O1       O      0.121550000000     0.723900000000     0.408300000000     0          
C1       C      0.101600000000     0.715650000000     0.398400000000     0          
C2       C      0.089000000000     0.693500000000     0.411000000000     0          
O1       O      0.121550000000     0.776100000000     0.091700000000     0          
C1       C      0.101600000000     0.784350000000     0.101600000000     0          
C2       C      0.089000000000     0.806500000000     0.089000000000     0          
O1       O      0.473900000000     0.871550000000     0.091700000000     0          
C3       C      0.432750000000     0.849700000000     0.067250000000     0          
H1       H      0.440100000000     0.864000000000     0.059900000000     0          
O1       O      0.378450000000     0.723900000000     0.091700000000     0          
C1       C      0.398400000000     0.715650000000     0.101600000000     0          
C2       C      0.411000000000     0.693500000000     0.089000000000     0          
O1       O      0.026100000000     0.628450000000     0.091700000000     0          
C3       C      0.067250000000     0.650300000000     0.067250000000     0          
H1       H      0.059900000000     0.636000000000     0.059900000000     0          
O1       O      0.378450000000     0.776100000000     0.408300000000     0          
C1       C      0.398400000000     0.784350000000     0.398400000000     0          
C2       C      0.411000000000     0.806500000000     0.411000000000     0          
O1       O      0.473900000000     0.628450000000     0.408300000000     0          
C3       C      0.432750000000     0.650300000000     0.432750000000     0          
H1       H      0.440100000000     0.636000000000     0.440100000000     0          
O1       O      0.026100000000     0.871550000000     0.408300000000     0          
C3       C      0.067250000000     0.849700000000     0.432750000000     0          
H1       H      0.059900000000     0.864000000000     0.440100000000     0          
O1       O      0.341700000000     0.628450000000     0.276100000000     0          
C1       C      0.351600000000     0.648400000000     0.284350000000     0          
C2       C      0.339000000000     0.661000000000     0.306500000000     0          
C3       C      0.317250000000     0.650300000000     0.317250000000     0          
H1       H      0.309900000000     0.636000000000     0.309900000000     0          
O1       O      0.121550000000     0.591700000000     0.276100000000     0          
C1       C      0.101600000000     0.601600000000     0.284350000000     0          
C2       C      0.089000000000     0.589000000000     0.306500000000     0          
O1       O      0.158300000000     0.871550000000     0.276100000000     0          
C1       C      0.148400000000     0.851600000000     0.284350000000     0          
C2       C      0.161000000000     0.839000000000     0.306500000000     0          
C3       C      0.182750000000     0.849700000000     0.317250000000     0          
H1       H      0.190100000000     0.864000000000     0.309900000000     0          
O1       O      0.378450000000     0.908300000000     0.276100000000     0          
C1       C      0.398400000000     0.898400000000     0.284350000000     0          
C2       C      0.411000000000     0.911000000000     0.306500000000     0          
O1       O      0.341700000000     0.871550000000     0.223900000000     0          
C1       C      0.351600000000     0.851600000000     0.215650000000     0          
C2       C      0.339000000000     0.839000000000     0.193500000000     0          
C3       C      0.317250000000     0.849700000000     0.182750000000     0          
H1       H      0.309900000000     0.864000000000     0.190100000000     0          
O1       O      0.378450000000     0.591700000000     0.223900000000     0          
C1       C      0.398400000000     0.601600000000     0.215650000000     0          
C2       C      0.411000000000     0.589000000000     0.193500000000     0          
O1       O      0.158300000000     0.628450000000     0.223900000000     0          
C1       C      0.148400000000     0.648400000000     0.215650000000     0          
C2       C      0.161000000000     0.661000000000     0.193500000000     0          
C3       C      0.182750000000     0.650300000000     0.182750000000     0          
H1       H      0.190100000000     0.636000000000     0.190100000000     0          
O1       O      0.121550000000     0.908300000000     0.223900000000     0          
C1       C      0.101600000000     0.898400000000     0.215650000000     0          
C2       C      0.089000000000     0.911000000000     0.193500000000     0          
O1       O      0.026100000000     0.591700000000     0.128450000000     0          
C3       C      0.067250000000     0.567250000000     0.150300000000     0          
H1       H      0.059900000000     0.559900000000     0.136000000000     0          
O1       O      0.158300000000     0.776100000000     0.128450000000     0          
C1       C      0.148400000000     0.784350000000     0.148400000000     0          
C2       C      0.161000000000     0.806500000000     0.161000000000     0          
C3       C      0.182750000000     0.817250000000     0.150300000000     0          
H1       H      0.190100000000     0.809900000000     0.136000000000     0          
O1       O      0.473900000000     0.908300000000     0.128450000000     0          
C3       C      0.432750000000     0.932750000000     0.150300000000     0          
H1       H      0.440100000000     0.940100000000     0.136000000000     0          
O1       O      0.341700000000     0.723900000000     0.128450000000     0          
C1       C      0.351600000000     0.715650000000     0.148400000000     0          
C2       C      0.339000000000     0.693500000000     0.161000000000     0          
C3       C      0.317250000000     0.682750000000     0.150300000000     0          
H1       H      0.309900000000     0.690100000000     0.136000000000     0          
O1       O      0.026100000000     0.908300000000     0.371550000000     0          
C3       C      0.067250000000     0.932750000000     0.349700000000     0          
H1       H      0.059900000000     0.940100000000     0.364000000000     0          
O1       O      0.341700000000     0.776100000000     0.371550000000     0          
C1       C      0.351600000000     0.784350000000     0.351600000000     0          
C2       C      0.339000000000     0.806500000000     0.339000000000     0          
C3       C      0.317250000000     0.817250000000     0.349700000000     0          
H1       H      0.309900000000     0.809900000000     0.364000000000     0          
O1       O      0.473900000000     0.591700000000     0.371550000000     0          
C3       C      0.432750000000     0.567250000000     0.349700000000     0          
H1       H      0.440100000000     0.559900000000     0.364000000000     0          
O1       O      0.158300000000     0.723900000000     0.371550000000     0          
C1       C      0.148400000000     0.715650000000     0.351600000000     0          
C2       C      0.161000000000     0.693500000000     0.339000000000     0          
C3       C      0.182750000000     0.682750000000     0.349700000000     0          
H1       H      0.190100000000     0.690100000000     0.364000000000     0          
O1       O      0.378450000000     0.776100000000     0.091700000000     0          
C1       C      0.398400000000     0.784350000000     0.101600000000     0          
C2       C      0.411000000000     0.806500000000     0.089000000000     0          
O1       O      0.378450000000     0.723900000000     0.408300000000     0          
C1       C      0.398400000000     0.715650000000     0.398400000000     0          
C2       C      0.411000000000     0.693500000000     0.411000000000     0          
O1       O      0.026100000000     0.628450000000     0.408300000000     0          
C3       C      0.067250000000     0.650300000000     0.432750000000     0          
H1       H      0.059900000000     0.636000000000     0.440100000000     0          
O1       O      0.121550000000     0.776100000000     0.408300000000     0          
C1       C      0.101600000000     0.784350000000     0.398400000000     0          
C2       C      0.089000000000     0.806500000000     0.411000000000     0          
O1       O      0.473900000000     0.871550000000     0.408300000000     0          
C3       C      0.432750000000     0.849700000000     0.432750000000     0          
H1       H      0.440100000000     0.864000000000     0.440100000000     0          
O1       O      0.121550000000     0.723900000000     0.091700000000     0          
C1       C      0.101600000000     0.715650000000     0.101600000000     0          
C2       C      0.089000000000     0.693500000000     0.089000000000     0          
O1       O      0.026100000000     0.871550000000     0.091700000000     0          
C3       C      0.067250000000     0.849700000000     0.067250000000     0          
H1       H      0.059900000000     0.864000000000     0.059900000000     0          
O1       O      0.473900000000     0.628450000000     0.091700000000     0          
C3       C      0.432750000000     0.650300000000     0.067250000000     0          
H1       H      0.440100000000     0.636000000000     0.059900000000     0          
Cu1      Cu     0.392650000000     0.642650000000     0.250000000000     0          
O1       O      0.408300000000     0.621550000000     0.223900000000     0          
Cu1      Cu     0.107350000000     0.642650000000     0.250000000000     0          
O1       O      0.128450000000     0.658300000000     0.223900000000     0          
C3       C      0.150300000000     0.682750000000     0.182750000000     0          
H1       H      0.136000000000     0.690100000000     0.190100000000     0          
Cu1      Cu     0.107350000000     0.857350000000     0.250000000000     0          
O1       O      0.091700000000     0.878450000000     0.223900000000     0          
Cu1      Cu     0.392650000000     0.857350000000     0.250000000000     0          
O1       O      0.371550000000     0.841700000000     0.223900000000     0          
C3       C      0.349700000000     0.817250000000     0.182750000000     0          
H1       H      0.364000000000     0.809900000000     0.190100000000     0          
O1       O      0.408300000000     0.878450000000     0.276100000000     0          
O1       O      0.371550000000     0.658300000000     0.276100000000     0          
C3       C      0.349700000000     0.682750000000     0.317250000000     0          
H1       H      0.364000000000     0.690100000000     0.309900000000     0          
O1       O      0.091700000000     0.621550000000     0.276100000000     0          
O1       O      0.128450000000     0.841700000000     0.276100000000     0          
C3       C      0.150300000000     0.817250000000     0.317250000000     0          
H1       H      0.136000000000     0.809900000000     0.309900000000     0          
Cu1      Cu     0.250000000000     0.642650000000     0.392650000000     0          
O1       O      0.223900000000     0.658300000000     0.371550000000     0          
C1       C      0.215650000000     0.648400000000     0.351600000000     0          
C2       C      0.193500000000     0.661000000000     0.339000000000     0          
Cu1      Cu     0.107350000000     0.500000000000     0.392650000000     0          
O1       O      0.091700000000     0.973900000000     0.371550000000     0          
Cu1      Cu     0.250000000000     0.857350000000     0.392650000000     0          
O1       O      0.276100000000     0.841700000000     0.371550000000     0          
C1       C      0.284350000000     0.851600000000     0.351600000000     0          
C2       C      0.306500000000     0.839000000000     0.339000000000     0          
Cu1      Cu     0.392650000000     0.500000000000     0.392650000000     0          
O1       O      0.408300000000     0.526100000000     0.371550000000     0          
Cu1      Cu     0.250000000000     0.857350000000     0.107350000000     0          
O1       O      0.223900000000     0.841700000000     0.128450000000     0          
C1       C      0.215650000000     0.851600000000     0.148400000000     0          
C2       C      0.193500000000     0.839000000000     0.161000000000     0          
Cu1      Cu     0.392650000000     0.500000000000     0.107350000000     0          
O1       O      0.408300000000     0.973900000000     0.128450000000     0          
Cu1      Cu     0.250000000000     0.642650000000     0.107350000000     0          
O1       O      0.276100000000     0.658300000000     0.128450000000     0          
C1       C      0.284350000000     0.648400000000     0.148400000000     0          
C2       C      0.306500000000     0.661000000000     0.161000000000     0          
Cu1      Cu     0.107350000000     0.500000000000     0.107350000000     0          
O1       O      0.091700000000     0.526100000000     0.128450000000     0          
O1       O      0.371550000000     0.973900000000     0.408300000000     0          
C3       C      0.349700000000     0.932750000000     0.432750000000     0          
H1       H      0.364000000000     0.940100000000     0.440100000000     0          
O1       O      0.371550000000     0.526100000000     0.091700000000     0          
C3       C      0.349700000000     0.567250000000     0.067250000000     0          
H1       H      0.364000000000     0.559900000000     0.059900000000     0          
O1       O      0.223900000000     0.621550000000     0.091700000000     0          
C1       C      0.215650000000     0.601600000000     0.101600000000     0          
C2       C      0.193500000000     0.589000000000     0.089000000000     0          
O1       O      0.128450000000     0.973900000000     0.091700000000     0          
C3       C      0.150300000000     0.932750000000     0.067250000000     0          
H1       H      0.136000000000     0.940100000000     0.059900000000     0          
O1       O      0.276100000000     0.878450000000     0.091700000000     0          
C1       C      0.284350000000     0.898400000000     0.101600000000     0          
C2       C      0.306500000000     0.911000000000     0.089000000000     0          
O1       O      0.128450000000     0.526100000000     0.408300000000     0          
C3       C      0.150300000000     0.567250000000     0.432750000000     0          
H1       H      0.136000000000     0.559900000000     0.440100000000     0          
O1       O      0.223900000000     0.878450000000     0.408300000000     0          
C1       C      0.215650000000     0.898400000000     0.398400000000     0          
C2       C      0.193500000000     0.911000000000     0.411000000000     0          
O1       O      0.276100000000     0.621550000000     0.408300000000     0          
C1       C      0.284350000000     0.601600000000     0.398400000000     0          
C2       C      0.306500000000     0.589000000000     0.411000000000     0          
O1       O      0.091700000000     0.878450000000     0.276100000000     0          
O1       O      0.371550000000     0.841700000000     0.276100000000     0          
C3       C      0.349700000000     0.817250000000     0.317250000000     0          
H1       H      0.364000000000     0.809900000000     0.309900000000     0          
O1       O      0.408300000000     0.621550000000     0.276100000000     0          
O1       O      0.128450000000     0.658300000000     0.276100000000     0          
C3       C      0.150300000000     0.682750000000     0.317250000000     0          
H1       H      0.136000000000     0.690100000000     0.309900000000     0          
O1       O      0.091700000000     0.621550000000     0.223900000000     0          
O1       O      0.128450000000     0.841700000000     0.223900000000     0          
C3       C      0.150300000000     0.817250000000     0.182750000000     0          
H1       H      0.136000000000     0.809900000000     0.190100000000     0          
O1       O      0.408300000000     0.878450000000     0.223900000000     0          
O1       O      0.371550000000     0.658300000000     0.223900000000     0          
C3       C      0.349700000000     0.682750000000     0.182750000000     0          
H1       H      0.364000000000     0.690100000000     0.190100000000     0          
O1       O      0.276100000000     0.841700000000     0.128450000000     0          
C1       C      0.284350000000     0.851600000000     0.148400000000     0          
C2       C      0.306500000000     0.839000000000     0.161000000000     0          
O1       O      0.408300000000     0.526100000000     0.128450000000     0          
O1       O      0.223900000000     0.658300000000     0.128450000000     0          
C1       C      0.215650000000     0.648400000000     0.148400000000     0          
C2       C      0.193500000000     0.661000000000     0.161000000000     0          
O1       O      0.091700000000     0.973900000000     0.128450000000     0          
O1       O      0.276100000000     0.658300000000     0.371550000000     0          
C1       C      0.284350000000     0.648400000000     0.351600000000     0          
C2       C      0.306500000000     0.661000000000     0.339000000000     0          
O1       O      0.091700000000     0.526100000000     0.371550000000     0          
O1       O      0.223900000000     0.841700000000     0.371550000000     0          
C1       C      0.215650000000     0.851600000000     0.351600000000     0          
C2       C      0.193500000000     0.839000000000     0.339000000000     0          
O1       O      0.408300000000     0.973900000000     0.371550000000     0          
O1       O      0.128450000000     0.526100000000     0.091700000000     0          
C3       C      0.150300000000     0.567250000000     0.067250000000     0          
H1       H      0.136000000000     0.559900000000     0.059900000000     0          
O1       O      0.128450000000     0.973900000000     0.408300000000     0          
C3       C      0.150300000000     0.932750000000     0.432750000000     0          
H1       H      0.136000000000     0.940100000000     0.440100000000     0          
O1       O      0.276100000000     0.878450000000     0.408300000000     0          
C1       C      0.284350000000     0.898400000000     0.398400000000     0          
C2       C      0.306500000000     0.911000000000     0.411000000000     0          
O1       O      0.371550000000     0.526100000000     0.408300000000     0          
C3       C      0.349700000000     0.567250000000     0.432750000000     0          
H1       H      0.364000000000     0.559900000000     0.440100000000     0          
O1       O      0.223900000000     0.621550000000     0.408300000000     0          
C1       C      0.215650000000     0.601600000000     0.398400000000     0          
C2       C      0.193500000000     0.589000000000     0.411000000000     0          
O1       O      0.371550000000     0.973900000000     0.091700000000     0          
C3       C      0.349700000000     0.932750000000     0.067250000000     0          
H1       H      0.364000000000     0.940100000000     0.059900000000     0          
O1       O      0.276100000000     0.621550000000     0.091700000000     0          
C1       C      0.284350000000     0.601600000000     0.101600000000     0          
C2       C      0.306500000000     0.589000000000     0.089000000000     0          
O1       O      0.223900000000     0.878450000000     0.091700000000     0          
C1       C      0.215650000000     0.898400000000     0.101600000000     0          
C2       C      0.193500000000     0.911000000000     0.089000000000     0          
Cu1      Cu     0.392650000000     0.892650000000     0.000000000000     0          
O1       O      0.408300000000     0.871550000000     0.473900000000     0          
Cu1      Cu     0.107350000000     0.892650000000     0.000000000000     0          
O1       O      0.128450000000     0.908300000000     0.473900000000     0          
Cu1      Cu     0.107350000000     0.607350000000     0.000000000000     0          
O1       O      0.091700000000     0.628450000000     0.473900000000     0          
Cu1      Cu     0.392650000000     0.607350000000     0.000000000000     0          
O1       O      0.371550000000     0.591700000000     0.473900000000     0          
O1       O      0.408300000000     0.628450000000     0.026100000000     0          
O1       O      0.371550000000     0.908300000000     0.026100000000     0          
O1       O      0.091700000000     0.871550000000     0.026100000000     0          
O1       O      0.128450000000     0.591700000000     0.026100000000     0          
Cu1      Cu     0.250000000000     0.892650000000     0.142650000000     0          
O1       O      0.223900000000     0.908300000000     0.121550000000     0          
Cu1      Cu     0.107350000000     0.750000000000     0.142650000000     0          
O1       O      0.091700000000     0.723900000000     0.121550000000     0          
Cu1      Cu     0.250000000000     0.607350000000     0.142650000000     0          
O1       O      0.276100000000     0.591700000000     0.121550000000     0          
Cu1      Cu     0.392650000000     0.750000000000     0.142650000000     0          
O1       O      0.408300000000     0.776100000000     0.121550000000     0          
Cu1      Cu     0.250000000000     0.607350000000     0.357350000000     0          
O1       O      0.223900000000     0.591700000000     0.378450000000     0          
Cu1      Cu     0.392650000000     0.750000000000     0.357350000000     0          
O1       O      0.408300000000     0.723900000000     0.378450000000     0          
Cu1      Cu     0.250000000000     0.892650000000     0.357350000000     0          
O1       O      0.276100000000     0.908300000000     0.378450000000     0          
Cu1      Cu     0.107350000000     0.750000000000     0.357350000000     0          
O1       O      0.091700000000     0.776100000000     0.378450000000     0          
O1       O      0.371550000000     0.723900000000     0.158300000000     0          
O1       O      0.371550000000     0.776100000000     0.341700000000     0          
O1       O      0.223900000000     0.871550000000     0.341700000000     0          
O1       O      0.128450000000     0.723900000000     0.341700000000     0          
O1       O      0.276100000000     0.628450000000     0.341700000000     0          
O1       O      0.128450000000     0.776100000000     0.158300000000     0          
O1       O      0.223900000000     0.628450000000     0.158300000000     0          
O1       O      0.276100000000     0.871550000000     0.158300000000     0          
O1       O      0.091700000000     0.628450000000     0.026100000000     0          
O1       O      0.371550000000     0.591700000000     0.026100000000     0          
O1       O      0.408300000000     0.871550000000     0.026100000000     0          
O1       O      0.128450000000     0.908300000000     0.026100000000     0          
O1       O      0.091700000000     0.871550000000     0.473900000000     0          
O1       O      0.128450000000     0.591700000000     0.473900000000     0          
O1       O      0.408300000000     0.628450000000     0.473900000000     0          
O1       O      0.371550000000     0.908300000000     0.473900000000     0          
O1       O      0.276100000000     0.591700000000     0.378450000000     0          
O1       O      0.408300000000     0.776100000000     0.378450000000     0          
O1       O      0.223900000000     0.908300000000     0.378450000000     0          
O1       O      0.091700000000     0.723900000000     0.378450000000     0          
O1       O      0.276100000000     0.908300000000     0.121550000000     0          
O1       O      0.091700000000     0.776100000000     0.121550000000     0          
O1       O      0.223900000000     0.591700000000     0.121550000000     0          
O1       O      0.408300000000     0.723900000000     0.121550000000     0          
O1       O      0.128450000000     0.776100000000     0.341700000000     0          
O1       O      0.128450000000     0.723900000000     0.158300000000     0          
O1       O      0.276100000000     0.628450000000     0.158300000000     0          
O1       O      0.371550000000     0.776100000000     0.158300000000     0          
O1       O      0.223900000000     0.871550000000     0.158300000000     0          
O1       O      0.371550000000     0.723900000000     0.341700000000     0          
O1       O      0.276100000000     0.871550000000     0.341700000000     0          
O1       O      0.223900000000     0.628450000000     0.341700000000     0          
Cu1      Cu     0.142650000000     0.642650000000     0.500000000000     0          
O1       O      0.158300000000     0.621550000000     0.973900000000     0          
C1       C      0.148400000000     0.601600000000     0.965650000000     0          
C2       C      0.161000000000     0.589000000000     0.943500000000     0          
C3       C      0.182750000000     0.599700000000     0.932750000000     0          
H1       H      0.190100000000     0.614000000000     0.940100000000     0          
Cu1      Cu     0.357350000000     0.642650000000     0.500000000000     0          
O1       O      0.378450000000     0.658300000000     0.973900000000     0          
C1       C      0.398400000000     0.648400000000     0.965650000000     0          
C2       C      0.411000000000     0.661000000000     0.943500000000     0          
C3       C      0.400300000000     0.682750000000     0.932750000000     0          
H1       H      0.386000000000     0.690100000000     0.940100000000     0          
Cu1      Cu     0.357350000000     0.857350000000     0.500000000000     0          
O1       O      0.341700000000     0.878450000000     0.973900000000     0          
C1       C      0.351600000000     0.898400000000     0.965650000000     0          
C2       C      0.339000000000     0.911000000000     0.943500000000     0          
C3       C      0.317250000000     0.900300000000     0.932750000000     0          
H1       H      0.309900000000     0.886000000000     0.940100000000     0          
Cu1      Cu     0.142650000000     0.857350000000     0.500000000000     0          
O1       O      0.121550000000     0.841700000000     0.973900000000     0          
C1       C      0.101600000000     0.851600000000     0.965650000000     0          
C2       C      0.089000000000     0.839000000000     0.943500000000     0          
C3       C      0.099700000000     0.817250000000     0.932750000000     0          
H1       H      0.114000000000     0.809900000000     0.940100000000     0          
O1       O      0.158300000000     0.878450000000     0.526100000000     0          
C1       C      0.148400000000     0.898400000000     0.534350000000     0          
C2       C      0.161000000000     0.911000000000     0.556500000000     0          
C3       C      0.182750000000     0.900300000000     0.567250000000     0          
H1       H      0.190100000000     0.886000000000     0.559900000000     0          
O1       O      0.121550000000     0.658300000000     0.526100000000     0          
C1       C      0.101600000000     0.648400000000     0.534350000000     0          
C2       C      0.089000000000     0.661000000000     0.556500000000     0          
C3       C      0.099700000000     0.682750000000     0.567250000000     0          
H1       H      0.114000000000     0.690100000000     0.559900000000     0          
O1       O      0.341700000000     0.621550000000     0.526100000000     0          
C1       C      0.351600000000     0.601600000000     0.534350000000     0          
C2       C      0.339000000000     0.589000000000     0.556500000000     0          
C3       C      0.317250000000     0.599700000000     0.567250000000     0          
H1       H      0.309900000000     0.614000000000     0.559900000000     0          
O1       O      0.378450000000     0.841700000000     0.526100000000     0          
C1       C      0.398400000000     0.851600000000     0.534350000000     0          
C2       C      0.411000000000     0.839000000000     0.556500000000     0          
C3       C      0.400300000000     0.817250000000     0.567250000000     0          
H1       H      0.386000000000     0.809900000000     0.559900000000     0          
Cu1      Cu     0.000000000000     0.642650000000     0.642650000000     0          
O1       O      0.473900000000     0.658300000000     0.621550000000     0          
C1       C      0.465650000000     0.648400000000     0.601600000000     0          
C2       C      0.443500000000     0.661000000000     0.589000000000     0          
C3       C      0.432750000000     0.682750000000     0.599700000000     0          
H1       H      0.440100000000     0.690100000000     0.614000000000     0          
Cu1      Cu     0.357350000000     0.500000000000     0.642650000000     0          
O1       O      0.341700000000     0.973900000000     0.621550000000     0          
C1       C      0.351600000000     0.965650000000     0.601600000000     0          
C2       C      0.339000000000     0.943500000000     0.589000000000     0          
C3       C      0.317250000000     0.932750000000     0.599700000000     0          
H1       H      0.309900000000     0.940100000000     0.614000000000     0          
Cu1      Cu     0.000000000000     0.857350000000     0.642650000000     0          
O1       O      0.026100000000     0.841700000000     0.621550000000     0          
C1       C      0.034350000000     0.851600000000     0.601600000000     0          
C2       C      0.056500000000     0.839000000000     0.589000000000     0          
C3       C      0.067250000000     0.817250000000     0.599700000000     0          
H1       H      0.059900000000     0.809900000000     0.614000000000     0          
Cu1      Cu     0.142650000000     0.500000000000     0.642650000000     0          
O1       O      0.158300000000     0.526100000000     0.621550000000     0          
C1       C      0.148400000000     0.534350000000     0.601600000000     0          
C2       C      0.161000000000     0.556500000000     0.589000000000     0          
C3       C      0.182750000000     0.567250000000     0.599700000000     0          
H1       H      0.190100000000     0.559900000000     0.614000000000     0          
Cu1      Cu     0.000000000000     0.857350000000     0.857350000000     0          
O1       O      0.473900000000     0.841700000000     0.878450000000     0          
C1       C      0.465650000000     0.851600000000     0.898400000000     0          
C2       C      0.443500000000     0.839000000000     0.911000000000     0          
C3       C      0.432750000000     0.817250000000     0.900300000000     0          
H1       H      0.440100000000     0.809900000000     0.886000000000     0          
Cu1      Cu     0.142650000000     0.500000000000     0.857350000000     0          
O1       O      0.158300000000     0.973900000000     0.878450000000     0          
C1       C      0.148400000000     0.965650000000     0.898400000000     0          
C2       C      0.161000000000     0.943500000000     0.911000000000     0          
C3       C      0.182750000000     0.932750000000     0.900300000000     0          
H1       H      0.190100000000     0.940100000000     0.886000000000     0          
Cu1      Cu     0.000000000000     0.642650000000     0.857350000000     0          
O1       O      0.026100000000     0.658300000000     0.878450000000     0          
C1       C      0.034350000000     0.648400000000     0.898400000000     0          
C2       C      0.056500000000     0.661000000000     0.911000000000     0          
C3       C      0.067250000000     0.682750000000     0.900300000000     0          
H1       H      0.059900000000     0.690100000000     0.886000000000     0          
Cu1      Cu     0.357350000000     0.500000000000     0.857350000000     0          
O1       O      0.341700000000     0.526100000000     0.878450000000     0          
C1       C      0.351600000000     0.534350000000     0.898400000000     0          
C2       C      0.339000000000     0.556500000000     0.911000000000     0          
C3       C      0.317250000000     0.567250000000     0.900300000000     0          
H1       H      0.309900000000     0.559900000000     0.886000000000     0          
O1       O      0.121550000000     0.973900000000     0.658300000000     0          
C1       C      0.101600000000     0.965650000000     0.648400000000     0          
C2       C      0.089000000000     0.943500000000     0.661000000000     0          
C3       C      0.099700000000     0.932750000000     0.682750000000     0          
H1       H      0.114000000000     0.940100000000     0.690100000000     0          
O1       O      0.121550000000     0.526100000000     0.841700000000     0          
C1       C      0.101600000000     0.534350000000     0.851600000000     0          
C2       C      0.089000000000     0.556500000000     0.839000000000     0          
C3       C      0.099700000000     0.567250000000     0.817250000000     0          
H1       H      0.114000000000     0.559900000000     0.809900000000     0          
O1       O      0.473900000000     0.621550000000     0.841700000000     0          
C1       C      0.465650000000     0.601600000000     0.851600000000     0          
C2       C      0.443500000000     0.589000000000     0.839000000000     0          
C3       C      0.432750000000     0.599700000000     0.817250000000     0          
H1       H      0.440100000000     0.614000000000     0.809900000000     0          
O1       O      0.378450000000     0.973900000000     0.841700000000     0          
C1       C      0.398400000000     0.965650000000     0.851600000000     0          
C2       C      0.411000000000     0.943500000000     0.839000000000     0          
C3       C      0.400300000000     0.932750000000     0.817250000000     0          
H1       H      0.386000000000     0.940100000000     0.809900000000     0          
O1       O      0.026100000000     0.878450000000     0.841700000000     0          
C1       C      0.034350000000     0.898400000000     0.851600000000     0          
C2       C      0.056500000000     0.911000000000     0.839000000000     0          
C3       C      0.067250000000     0.900300000000     0.817250000000     0          
H1       H      0.059900000000     0.886000000000     0.809900000000     0          
O1       O      0.378450000000     0.526100000000     0.658300000000     0          
C1       C      0.398400000000     0.534350000000     0.648400000000     0          
C2       C      0.411000000000     0.556500000000     0.661000000000     0          
C3       C      0.400300000000     0.567250000000     0.682750000000     0          
H1       H      0.386000000000     0.559900000000     0.690100000000     0          
O1       O      0.473900000000     0.878450000000     0.658300000000     0          
C1       C      0.465650000000     0.898400000000     0.648400000000     0          
C2       C      0.443500000000     0.911000000000     0.661000000000     0          
C3       C      0.432750000000     0.900300000000     0.682750000000     0          
H1       H      0.440100000000     0.886000000000     0.690100000000     0          
O1       O      0.026100000000     0.621550000000     0.658300000000     0          
C1       C      0.034350000000     0.601600000000     0.648400000000     0          
C2       C      0.056500000000     0.589000000000     0.661000000000     0          
C3       C      0.067250000000     0.599700000000     0.682750000000     0          
H1       H      0.059900000000     0.614000000000     0.690100000000     0          
O1       O      0.341700000000     0.878450000000     0.526100000000     0          
C1       C      0.351600000000     0.898400000000     0.534350000000     0          
C2       C      0.339000000000     0.911000000000     0.556500000000     0          
C3       C      0.317250000000     0.900300000000     0.567250000000     0          
H1       H      0.309900000000     0.886000000000     0.559900000000     0          
O1       O      0.121550000000     0.841700000000     0.526100000000     0          
C1       C      0.101600000000     0.851600000000     0.534350000000     0          
C2       C      0.089000000000     0.839000000000     0.556500000000     0          
C3       C      0.099700000000     0.817250000000     0.567250000000     0          
H1       H      0.114000000000     0.809900000000     0.559900000000     0          
O1       O      0.158300000000     0.621550000000     0.526100000000     0          
C1       C      0.148400000000     0.601600000000     0.534350000000     0          
C2       C      0.161000000000     0.589000000000     0.556500000000     0          
C3       C      0.182750000000     0.599700000000     0.567250000000     0          
H1       H      0.190100000000     0.614000000000     0.559900000000     0          
O1       O      0.378450000000     0.658300000000     0.526100000000     0          
C1       C      0.398400000000     0.648400000000     0.534350000000     0          
C2       C      0.411000000000     0.661000000000     0.556500000000     0          
C3       C      0.400300000000     0.682750000000     0.567250000000     0          
H1       H      0.386000000000     0.690100000000     0.559900000000     0          
O1       O      0.341700000000     0.621550000000     0.973900000000     0          
C1       C      0.351600000000     0.601600000000     0.965650000000     0          
C2       C      0.339000000000     0.589000000000     0.943500000000     0          
C3       C      0.317250000000     0.599700000000     0.932750000000     0          
H1       H      0.309900000000     0.614000000000     0.940100000000     0          
O1       O      0.378450000000     0.841700000000     0.973900000000     0          
C1       C      0.398400000000     0.851600000000     0.965650000000     0          
C2       C      0.411000000000     0.839000000000     0.943500000000     0          
C3       C      0.400300000000     0.817250000000     0.932750000000     0          
H1       H      0.386000000000     0.809900000000     0.940100000000     0          
O1       O      0.158300000000     0.878450000000     0.973900000000     0          
C1       C      0.148400000000     0.898400000000     0.965650000000     0          
C2       C      0.161000000000     0.911000000000     0.943500000000     0          
C3       C      0.182750000000     0.900300000000     0.932750000000     0          
H1       H      0.190100000000     0.886000000000     0.940100000000     0          
O1       O      0.121550000000     0.658300000000     0.973900000000     0          
C1       C      0.101600000000     0.648400000000     0.965650000000     0          
C2       C      0.089000000000     0.661000000000     0.943500000000     0          
C3       C      0.099700000000     0.682750000000     0.932750000000     0          
H1       H      0.114000000000     0.690100000000     0.940100000000     0          
O1       O      0.026100000000     0.841700000000     0.878450000000     0          
C1       C      0.034350000000     0.851600000000     0.898400000000     0          
C2       C      0.056500000000     0.839000000000     0.911000000000     0          
C3       C      0.067250000000     0.817250000000     0.900300000000     0          
H1       H      0.059900000000     0.809900000000     0.886000000000     0          
O1       O      0.158300000000     0.526100000000     0.878450000000     0          
C1       C      0.148400000000     0.534350000000     0.898400000000     0          
C2       C      0.161000000000     0.556500000000     0.911000000000     0          
C3       C      0.182750000000     0.567250000000     0.900300000000     0          
H1       H      0.190100000000     0.559900000000     0.886000000000     0          
O1       O      0.473900000000     0.658300000000     0.878450000000     0          
C1       C      0.465650000000     0.648400000000     0.898400000000     0          
C2       C      0.443500000000     0.661000000000     0.911000000000     0          
C3       C      0.432750000000     0.682750000000     0.900300000000     0          
H1       H      0.440100000000     0.690100000000     0.886000000000     0          
O1       O      0.341700000000     0.973900000000     0.878450000000     0          
C1       C      0.351600000000     0.965650000000     0.898400000000     0          
C2       C      0.339000000000     0.943500000000     0.911000000000     0          
C3       C      0.317250000000     0.932750000000     0.900300000000     0          
H1       H      0.309900000000     0.940100000000     0.886000000000     0          
O1       O      0.026100000000     0.658300000000     0.621550000000     0          
C1       C      0.034350000000     0.648400000000     0.601600000000     0          
C2       C      0.056500000000     0.661000000000     0.589000000000     0          
C3       C      0.067250000000     0.682750000000     0.599700000000     0          
H1       H      0.059900000000     0.690100000000     0.614000000000     0          
O1       O      0.341700000000     0.526100000000     0.621550000000     0          
C1       C      0.351600000000     0.534350000000     0.601600000000     0          
C2       C      0.339000000000     0.556500000000     0.589000000000     0          
C3       C      0.317250000000     0.567250000000     0.599700000000     0          
H1       H      0.309900000000     0.559900000000     0.614000000000     0          
O1       O      0.473900000000     0.841700000000     0.621550000000     0          
C1       C      0.465650000000     0.851600000000     0.601600000000     0          
C2       C      0.443500000000     0.839000000000     0.589000000000     0          
C3       C      0.432750000000     0.817250000000     0.599700000000     0          
H1       H      0.440100000000     0.809900000000     0.614000000000     0          
O1       O      0.158300000000     0.973900000000     0.621550000000     0          
C1       C      0.148400000000     0.965650000000     0.601600000000     0          
C2       C      0.161000000000     0.943500000000     0.589000000000     0          
C3       C      0.182750000000     0.932750000000     0.599700000000     0          
H1       H      0.190100000000     0.940100000000     0.614000000000     0          
O1       O      0.378450000000     0.526100000000     0.841700000000     0          
C1       C      0.398400000000     0.534350000000     0.851600000000     0          
C2       C      0.411000000000     0.556500000000     0.839000000000     0          
C3       C      0.400300000000     0.567250000000     0.817250000000     0          
H1       H      0.386000000000     0.559900000000     0.809900000000     0          
O1       O      0.378450000000     0.973900000000     0.658300000000     0          
C1       C      0.398400000000     0.965650000000     0.648400000000     0          
C2       C      0.411000000000     0.943500000000     0.661000000000     0          
C3       C      0.400300000000     0.932750000000     0.682750000000     0          
H1       H      0.386000000000     0.940100000000     0.690100000000     0          
O1       O      0.026100000000     0.878450000000     0.658300000000     0          
C1       C      0.034350000000     0.898400000000     0.648400000000     0          
C2       C      0.056500000000     0.911000000000     0.661000000000     0          
C3       C      0.067250000000     0.900300000000     0.682750000000     0          
H1       H      0.059900000000     0.886000000000     0.690100000000     0          
O1       O      0.121550000000     0.526100000000     0.658300000000     0          
C1       C      0.101600000000     0.534350000000     0.648400000000     0          
C2       C      0.089000000000     0.556500000000     0.661000000000     0          
C3       C      0.099700000000     0.567250000000     0.682750000000     0          
H1       H      0.114000000000     0.559900000000     0.690100000000     0          
O1       O      0.473900000000     0.621550000000     0.658300000000     0          
C1       C      0.465650000000     0.601600000000     0.648400000000     0          
C2       C      0.443500000000     0.589000000000     0.661000000000     0          
C3       C      0.432750000000     0.599700000000     0.682750000000     0          
H1       H      0.440100000000     0.614000000000     0.690100000000     0          
O1       O      0.121550000000     0.973900000000     0.841700000000     0          
C1       C      0.101600000000     0.965650000000     0.851600000000     0          
C2       C      0.089000000000     0.943500000000     0.839000000000     0          
C3       C      0.099700000000     0.932750000000     0.817250000000     0          
H1       H      0.114000000000     0.940100000000     0.809900000000     0          
O1       O      0.026100000000     0.621550000000     0.841700000000     0          
C1       C      0.034350000000     0.601600000000     0.851600000000     0          
C2       C      0.056500000000     0.589000000000     0.839000000000     0          
C3       C      0.067250000000     0.599700000000     0.817250000000     0          
H1       H      0.059900000000     0.614000000000     0.809900000000     0          
O1       O      0.473900000000     0.878450000000     0.841700000000     0          
C1       C      0.465650000000     0.898400000000     0.851600000000     0          
C2       C      0.443500000000     0.911000000000     0.839000000000     0          
C3       C      0.432750000000     0.900300000000     0.817250000000     0          
H1       H      0.440100000000     0.886000000000     0.809900000000     0          
Cu1      Cu     0.142650000000     0.892650000000     0.750000000000     0          
O1       O      0.158300000000     0.871550000000     0.723900000000     0          
C1       C      0.148400000000     0.851600000000     0.715650000000     0          
C2       C      0.161000000000     0.839000000000     0.693500000000     0          
C3       C      0.182750000000     0.849700000000     0.682750000000     0          
H1       H      0.190100000000     0.864000000000     0.690100000000     0          
Cu1      Cu     0.357350000000     0.892650000000     0.750000000000     0          
O1       O      0.378450000000     0.908300000000     0.723900000000     0          
C1       C      0.398400000000     0.898400000000     0.715650000000     0          
C2       C      0.411000000000     0.911000000000     0.693500000000     0          
Cu1      Cu     0.357350000000     0.607350000000     0.750000000000     0          
O1       O      0.341700000000     0.628450000000     0.723900000000     0          
C1       C      0.351600000000     0.648400000000     0.715650000000     0          
C2       C      0.339000000000     0.661000000000     0.693500000000     0          
C3       C      0.317250000000     0.650300000000     0.682750000000     0          
H1       H      0.309900000000     0.636000000000     0.690100000000     0          
Cu1      Cu     0.142650000000     0.607350000000     0.750000000000     0          
O1       O      0.121550000000     0.591700000000     0.723900000000     0          
C1       C      0.101600000000     0.601600000000     0.715650000000     0          
C2       C      0.089000000000     0.589000000000     0.693500000000     0          
O1       O      0.158300000000     0.628450000000     0.776100000000     0          
C1       C      0.148400000000     0.648400000000     0.784350000000     0          
C2       C      0.161000000000     0.661000000000     0.806500000000     0          
C3       C      0.182750000000     0.650300000000     0.817250000000     0          
H1       H      0.190100000000     0.636000000000     0.809900000000     0          
O1       O      0.121550000000     0.908300000000     0.776100000000     0          
C1       C      0.101600000000     0.898400000000     0.784350000000     0          
C2       C      0.089000000000     0.911000000000     0.806500000000     0          
O1       O      0.341700000000     0.871550000000     0.776100000000     0          
C1       C      0.351600000000     0.851600000000     0.784350000000     0          
C2       C      0.339000000000     0.839000000000     0.806500000000     0          
C3       C      0.317250000000     0.849700000000     0.817250000000     0          
H1       H      0.309900000000     0.864000000000     0.809900000000     0          
O1       O      0.378450000000     0.591700000000     0.776100000000     0          
C1       C      0.398400000000     0.601600000000     0.784350000000     0          
C2       C      0.411000000000     0.589000000000     0.806500000000     0          
Cu1      Cu     0.000000000000     0.892650000000     0.892650000000     0          
O1       O      0.473900000000     0.908300000000     0.871550000000     0          
C3       C      0.432750000000     0.932750000000     0.849700000000     0          
H1       H      0.440100000000     0.940100000000     0.864000000000     0          
Cu1      Cu     0.357350000000     0.750000000000     0.892650000000     0          
O1       O      0.341700000000     0.723900000000     0.871550000000     0          
C1       C      0.351600000000     0.715650000000     0.851600000000     0          
C2       C      0.339000000000     0.693500000000     0.839000000000     0          
C3       C      0.317250000000     0.682750000000     0.849700000000     0          
H1       H      0.309900000000     0.690100000000     0.864000000000     0          
Cu1      Cu     0.000000000000     0.607350000000     0.892650000000     0          
O1       O      0.026100000000     0.591700000000     0.871550000000     0          
C3       C      0.067250000000     0.567250000000     0.849700000000     0          
H1       H      0.059900000000     0.559900000000     0.864000000000     0          
Cu1      Cu     0.142650000000     0.750000000000     0.892650000000     0          
O1       O      0.158300000000     0.776100000000     0.871550000000     0          
C1       C      0.148400000000     0.784350000000     0.851600000000     0          
C2       C      0.161000000000     0.806500000000     0.839000000000     0          
C3       C      0.182750000000     0.817250000000     0.849700000000     0          
H1       H      0.190100000000     0.809900000000     0.864000000000     0          
Cu1      Cu     0.000000000000     0.607350000000     0.607350000000     0          
O1       O      0.473900000000     0.591700000000     0.628450000000     0          
C3       C      0.432750000000     0.567250000000     0.650300000000     0          
H1       H      0.440100000000     0.559900000000     0.636000000000     0          
Cu1      Cu     0.142650000000     0.750000000000     0.607350000000     0          
O1       O      0.158300000000     0.723900000000     0.628450000000     0          
C1       C      0.148400000000     0.715650000000     0.648400000000     0          
C2       C      0.161000000000     0.693500000000     0.661000000000     0          
C3       C      0.182750000000     0.682750000000     0.650300000000     0          
H1       H      0.190100000000     0.690100000000     0.636000000000     0          
Cu1      Cu     0.000000000000     0.892650000000     0.607350000000     0          
O1       O      0.026100000000     0.908300000000     0.628450000000     0          
C3       C      0.067250000000     0.932750000000     0.650300000000     0          
H1       H      0.059900000000     0.940100000000     0.636000000000     0          
Cu1      Cu     0.357350000000     0.750000000000     0.607350000000     0          
O1       O      0.341700000000     0.776100000000     0.628450000000     0          
C1       C      0.351600000000     0.784350000000     0.648400000000     0          
C2       C      0.339000000000     0.806500000000     0.661000000000     0          
C3       C      0.317250000000     0.817250000000     0.650300000000     0          
H1       H      0.309900000000     0.809900000000     0.636000000000     0          
O1       O      0.121550000000     0.723900000000     0.908300000000     0          
C1       C      0.101600000000     0.715650000000     0.898400000000     0          
C2       C      0.089000000000     0.693500000000     0.911000000000     0          
O1       O      0.121550000000     0.776100000000     0.591700000000     0          
C1       C      0.101600000000     0.784350000000     0.601600000000     0          
C2       C      0.089000000000     0.806500000000     0.589000000000     0          
O1       O      0.473900000000     0.871550000000     0.591700000000     0          
C3       C      0.432750000000     0.849700000000     0.567250000000     0          
H1       H      0.440100000000     0.864000000000     0.559900000000     0          
O1       O      0.378450000000     0.723900000000     0.591700000000     0          
C1       C      0.398400000000     0.715650000000     0.601600000000     0          
C2       C      0.411000000000     0.693500000000     0.589000000000     0          
O1       O      0.026100000000     0.628450000000     0.591700000000     0          
C3       C      0.067250000000     0.650300000000     0.567250000000     0          
H1       H      0.059900000000     0.636000000000     0.559900000000     0          
O1       O      0.378450000000     0.776100000000     0.908300000000     0          
C1       C      0.398400000000     0.784350000000     0.898400000000     0          
C2       C      0.411000000000     0.806500000000     0.911000000000     0          
O1       O      0.473900000000     0.628450000000     0.908300000000     0          
C3       C      0.432750000000     0.650300000000     0.932750000000     0          
H1       H      0.440100000000     0.636000000000     0.940100000000     0          
O1       O      0.026100000000     0.871550000000     0.908300000000     0          
C3       C      0.067250000000     0.849700000000     0.932750000000     0          
H1       H      0.059900000000     0.864000000000     0.940100000000     0          
O1       O      0.341700000000     0.628450000000     0.776100000000     0          
C1       C      0.351600000000     0.648400000000     0.784350000000     0          
C2       C      0.339000000000     0.661000000000     0.806500000000     0          
C3       C      0.317250000000     0.650300000000     0.817250000000     0          
H1       H      0.309900000000     0.636000000000     0.809900000000     0          
O1       O      0.121550000000     0.591700000000     0.776100000000     0          
C1       C      0.101600000000     0.601600000000     0.784350000000     0          
C2       C      0.089000000000     0.589000000000     0.806500000000     0          
O1       O      0.158300000000     0.871550000000     0.776100000000     0          
C1       C      0.148400000000     0.851600000000     0.784350000000     0          
C2       C      0.161000000000     0.839000000000     0.806500000000     0          
C3       C      0.182750000000     0.849700000000     0.817250000000     0          
H1       H      0.190100000000     0.864000000000     0.809900000000     0          
O1       O      0.378450000000     0.908300000000     0.776100000000     0          
C1       C      0.398400000000     0.898400000000     0.784350000000     0          
C2       C      0.411000000000     0.911000000000     0.806500000000     0          
O1       O      0.341700000000     0.871550000000     0.723900000000     0          
C1       C      0.351600000000     0.851600000000     0.715650000000     0          
C2       C      0.339000000000     0.839000000000     0.693500000000     0          
C3       C      0.317250000000     0.849700000000     0.682750000000     0          
H1       H      0.309900000000     0.864000000000     0.690100000000     0          
O1       O      0.378450000000     0.591700000000     0.723900000000     0          
C1       C      0.398400000000     0.601600000000     0.715650000000     0          
C2       C      0.411000000000     0.589000000000     0.693500000000     0          
O1       O      0.158300000000     0.628450000000     0.723900000000     0          
C1       C      0.148400000000     0.648400000000     0.715650000000     0          
C2       C      0.161000000000     0.661000000000     0.693500000000     0          
C3       C      0.182750000000     0.650300000000     0.682750000000     0          
H1       H      0.190100000000     0.636000000000     0.690100000000     0          
O1       O      0.121550000000     0.908300000000     0.723900000000     0          
C1       C      0.101600000000     0.898400000000     0.715650000000     0          
C2       C      0.089000000000     0.911000000000     0.693500000000     0          
O1       O      0.026100000000     0.591700000000     0.628450000000     0          
C3       C      0.067250000000     0.567250000000     0.650300000000     0          
H1       H      0.059900000000     0.559900000000     0.636000000000     0          
O1       O      0.158300000000     0.776100000000     0.628450000000     0          
C1       C      0.148400000000     0.784350000000     0.648400000000     0          
C2       C      0.161000000000     0.806500000000     0.661000000000     0          
C3       C      0.182750000000     0.817250000000     0.650300000000     0          
H1       H      0.190100000000     0.809900000000     0.636000000000     0          
O1       O      0.473900000000     0.908300000000     0.628450000000     0          
C3       C      0.432750000000     0.932750000000     0.650300000000     0          
H1       H      0.440100000000     0.940100000000     0.636000000000     0          
O1       O      0.341700000000     0.723900000000     0.628450000000     0          
C1       C      0.351600000000     0.715650000000     0.648400000000     0          
C2       C      0.339000000000     0.693500000000     0.661000000000     0          
C3       C      0.317250000000     0.682750000000     0.650300000000     0          
H1       H      0.309900000000     0.690100000000     0.636000000000     0          
O1       O      0.026100000000     0.908300000000     0.871550000000     0          
C3       C      0.067250000000     0.932750000000     0.849700000000     0          
H1       H      0.059900000000     0.940100000000     0.864000000000     0          
O1       O      0.341700000000     0.776100000000     0.871550000000     0          
C1       C      0.351600000000     0.784350000000     0.851600000000     0          
C2       C      0.339000000000     0.806500000000     0.839000000000     0          
C3       C      0.317250000000     0.817250000000     0.849700000000     0          
H1       H      0.309900000000     0.809900000000     0.864000000000     0          
O1       O      0.473900000000     0.591700000000     0.871550000000     0          
C3       C      0.432750000000     0.567250000000     0.849700000000     0          
H1       H      0.440100000000     0.559900000000     0.864000000000     0          
O1       O      0.158300000000     0.723900000000     0.871550000000     0          
C1       C      0.148400000000     0.715650000000     0.851600000000     0          
C2       C      0.161000000000     0.693500000000     0.839000000000     0          
C3       C      0.182750000000     0.682750000000     0.849700000000     0          
H1       H      0.190100000000     0.690100000000     0.864000000000     0          
O1       O      0.378450000000     0.776100000000     0.591700000000     0          
C1       C      0.398400000000     0.784350000000     0.601600000000     0          
C2       C      0.411000000000     0.806500000000     0.589000000000     0          
O1       O      0.378450000000     0.723900000000     0.908300000000     0          
C1       C      0.398400000000     0.715650000000     0.898400000000     0          
C2       C      0.411000000000     0.693500000000     0.911000000000     0          
O1       O      0.026100000000     0.628450000000     0.908300000000     0          
C3       C      0.067250000000     0.650300000000     0.932750000000     0          
H1       H      0.059900000000     0.636000000000     0.940100000000     0          
O1       O      0.121550000000     0.776100000000     0.908300000000     0          
C1       C      0.101600000000     0.784350000000     0.898400000000     0          
C2       C      0.089000000000     0.806500000000     0.911000000000     0          
O1       O      0.473900000000     0.871550000000     0.908300000000     0          
C3       C      0.432750000000     0.849700000000     0.932750000000     0          
H1       H      0.440100000000     0.864000000000     0.940100000000     0          
O1       O      0.121550000000     0.723900000000     0.591700000000     0          
C1       C      0.101600000000     0.715650000000     0.601600000000     0          
C2       C      0.089000000000     0.693500000000     0.589000000000     0          
O1       O      0.026100000000     0.871550000000     0.591700000000     0          
C3       C      0.067250000000     0.849700000000     0.567250000000     0          
H1       H      0.059900000000     0.864000000000     0.559900000000     0          
O1       O      0.473900000000     0.628450000000     0.591700000000     0          
C3       C      0.432750000000     0.650300000000     0.567250000000     0          
H1       H      0.440100000000     0.636000000000     0.559900000000     0          
Cu1      Cu     0.392650000000     0.642650000000     0.750000000000     0          
O1       O      0.408300000000     0.621550000000     0.723900000000     0          
Cu1      Cu     0.107350000000     0.642650000000     0.750000000000     0          
O1       O      0.128450000000     0.658300000000     0.723900000000     0          
C3       C      0.150300000000     0.682750000000     0.682750000000     0          
H1       H      0.136000000000     0.690100000000     0.690100000000     0          
Cu1      Cu     0.107350000000     0.857350000000     0.750000000000     0          
O1       O      0.091700000000     0.878450000000     0.723900000000     0          
Cu1      Cu     0.392650000000     0.857350000000     0.750000000000     0          
O1       O      0.371550000000     0.841700000000     0.723900000000     0          
C3       C      0.349700000000     0.817250000000     0.682750000000     0          
H1       H      0.364000000000     0.809900000000     0.690100000000     0          
O1       O      0.408300000000     0.878450000000     0.776100000000     0          
O1       O      0.371550000000     0.658300000000     0.776100000000     0          
C3       C      0.349700000000     0.682750000000     0.817250000000     0          
H1       H      0.364000000000     0.690100000000     0.809900000000     0          
O1       O      0.091700000000     0.621550000000     0.776100000000     0          
O1       O      0.128450000000     0.841700000000     0.776100000000     0          
C3       C      0.150300000000     0.817250000000     0.817250000000     0          
H1       H      0.136000000000     0.809900000000     0.809900000000     0          
Cu1      Cu     0.250000000000     0.642650000000     0.892650000000     0          
O1       O      0.223900000000     0.658300000000     0.871550000000     0          
C1       C      0.215650000000     0.648400000000     0.851600000000     0          
C2       C      0.193500000000     0.661000000000     0.839000000000     0          
Cu1      Cu     0.107350000000     0.500000000000     0.892650000000     0          
O1       O      0.091700000000     0.973900000000     0.871550000000     0          
Cu1      Cu     0.250000000000     0.857350000000     0.892650000000     0          
O1       O      0.276100000000     0.841700000000     0.871550000000     0          
C1       C      0.284350000000     0.851600000000     0.851600000000     0          
C2       C      0.306500000000     0.839000000000     0.839000000000     0          
Cu1      Cu     0.392650000000     0.500000000000     0.892650000000     0          
O1       O      0.408300000000     0.526100000000     0.871550000000     0          
Cu1      Cu     0.250000000000     0.857350000000     0.607350000000     0          
O1       O      0.223900000000     0.841700000000     0.628450000000     0          
C1       C      0.215650000000     0.851600000000     0.648400000000     0          
C2       C      0.193500000000     0.839000000000     0.661000000000     0          
Cu1      Cu     0.392650000000     0.500000000000     0.607350000000     0          
O1       O      0.408300000000     0.973900000000     0.628450000000     0          
Cu1      Cu     0.250000000000     0.642650000000     0.607350000000     0          
O1       O      0.276100000000     0.658300000000     0.628450000000     0          
C1       C      0.284350000000     0.648400000000     0.648400000000     0          
C2       C      0.306500000000     0.661000000000     0.661000000000     0          
Cu1      Cu     0.107350000000     0.500000000000     0.607350000000     0          
O1       O      0.091700000000     0.526100000000     0.628450000000     0          
O1       O      0.371550000000     0.973900000000     0.908300000000     0          
C3       C      0.349700000000     0.932750000000     0.932750000000     0          
H1       H      0.364000000000     0.940100000000     0.940100000000     0          
O1       O      0.371550000000     0.526100000000     0.591700000000     0          
C3       C      0.349700000000     0.567250000000     0.567250000000     0          
H1       H      0.364000000000     0.559900000000     0.559900000000     0          
O1       O      0.223900000000     0.621550000000     0.591700000000     0          
C1       C      0.215650000000     0.601600000000     0.601600000000     0          
C2       C      0.193500000000     0.589000000000     0.589000000000     0          
O1       O      0.128450000000     0.973900000000     0.591700000000     0          
C3       C      0.150300000000     0.932750000000     0.567250000000     0          
H1       H      0.136000000000     0.940100000000     0.559900000000     0          
O1       O      0.276100000000     0.878450000000     0.591700000000     0          
C1       C      0.284350000000     0.898400000000     0.601600000000     0          
C2       C      0.306500000000     0.911000000000     0.589000000000     0          
O1       O      0.128450000000     0.526100000000     0.908300000000     0          
C3       C      0.150300000000     0.567250000000     0.932750000000     0          
H1       H      0.136000000000     0.559900000000     0.940100000000     0          
O1       O      0.223900000000     0.878450000000     0.908300000000     0          
C1       C      0.215650000000     0.898400000000     0.898400000000     0          
C2       C      0.193500000000     0.911000000000     0.911000000000     0          
O1       O      0.276100000000     0.621550000000     0.908300000000     0          
C1       C      0.284350000000     0.601600000000     0.898400000000     0          
C2       C      0.306500000000     0.589000000000     0.911000000000     0          
O1       O      0.091700000000     0.878450000000     0.776100000000     0          
O1       O      0.371550000000     0.841700000000     0.776100000000     0          
C3       C      0.349700000000     0.817250000000     0.817250000000     0          
H1       H      0.364000000000     0.809900000000     0.809900000000     0          
O1       O      0.408300000000     0.621550000000     0.776100000000     0          
O1       O      0.128450000000     0.658300000000     0.776100000000     0          
C3       C      0.150300000000     0.682750000000     0.817250000000     0          
H1       H      0.136000000000     0.690100000000     0.809900000000     0          
O1       O      0.091700000000     0.621550000000     0.723900000000     0          
O1       O      0.128450000000     0.841700000000     0.723900000000     0          
C3       C      0.150300000000     0.817250000000     0.682750000000     0          
H1       H      0.136000000000     0.809900000000     0.690100000000     0          
O1       O      0.408300000000     0.878450000000     0.723900000000     0          
O1       O      0.371550000000     0.658300000000     0.723900000000     0          
C3       C      0.349700000000     0.682750000000     0.682750000000     0          
H1       H      0.364000000000     0.690100000000     0.690100000000     0          
O1       O      0.276100000000     0.841700000000     0.628450000000     0          
C1       C      0.284350000000     0.851600000000     0.648400000000     0          
C2       C      0.306500000000     0.839000000000     0.661000000000     0          
O1       O      0.408300000000     0.526100000000     0.628450000000     0          
O1       O      0.223900000000     0.658300000000     0.628450000000     0          
C1       C      0.215650000000     0.648400000000     0.648400000000     0          
C2       C      0.193500000000     0.661000000000     0.661000000000     0          
O1       O      0.091700000000     0.973900000000     0.628450000000     0          
O1       O      0.276100000000     0.658300000000     0.871550000000     0          
C1       C      0.284350000000     0.648400000000     0.851600000000     0          
C2       C      0.306500000000     0.661000000000     0.839000000000     0          
O1       O      0.091700000000     0.526100000000     0.871550000000     0          
O1       O      0.223900000000     0.841700000000     0.871550000000     0          
C1       C      0.215650000000     0.851600000000     0.851600000000     0          
C2       C      0.193500000000     0.839000000000     0.839000000000     0          
O1       O      0.408300000000     0.973900000000     0.871550000000     0          
O1       O      0.128450000000     0.526100000000     0.591700000000     0          
C3       C      0.150300000000     0.567250000000     0.567250000000     0          
H1       H      0.136000000000     0.559900000000     0.559900000000     0          
O1       O      0.128450000000     0.973900000000     0.908300000000     0          
C3       C      0.150300000000     0.932750000000     0.932750000000     0          
H1       H      0.136000000000     0.940100000000     0.940100000000     0          
O1       O      0.276100000000     0.878450000000     0.908300000000     0          
C1       C      0.284350000000     0.898400000000     0.898400000000     0          
C2       C      0.306500000000     0.911000000000     0.911000000000     0          
O1       O      0.371550000000     0.526100000000     0.908300000000     0          
C3       C      0.349700000000     0.567250000000     0.932750000000     0          
H1       H      0.364000000000     0.559900000000     0.940100000000     0          
O1       O      0.223900000000     0.621550000000     0.908300000000     0          
C1       C      0.215650000000     0.601600000000     0.898400000000     0          
C2       C      0.193500000000     0.589000000000     0.911000000000     0          
O1       O      0.371550000000     0.973900000000     0.591700000000     0          
C3       C      0.349700000000     0.932750000000     0.567250000000     0          
H1       H      0.364000000000     0.940100000000     0.559900000000     0          
O1       O      0.276100000000     0.621550000000     0.591700000000     0          
C1       C      0.284350000000     0.601600000000     0.601600000000     0          
C2       C      0.306500000000     0.589000000000     0.589000000000     0          
O1       O      0.223900000000     0.878450000000     0.591700000000     0          
C1       C      0.215650000000     0.898400000000     0.601600000000     0          
C2       C      0.193500000000     0.911000000000     0.589000000000     0          
Cu1      Cu     0.392650000000     0.892650000000     0.500000000000     0          
O1       O      0.408300000000     0.871550000000     0.973900000000     0          
Cu1      Cu     0.107350000000     0.892650000000     0.500000000000     0          
O1       O      0.128450000000     0.908300000000     0.973900000000     0          
Cu1      Cu     0.107350000000     0.607350000000     0.500000000000     0          
O1       O      0.091700000000     0.628450000000     0.973900000000     0          
Cu1      Cu     0.392650000000     0.607350000000     0.500000000000     0          
O1       O      0.371550000000     0.591700000000     0.973900000000     0          
O1       O      0.408300000000     0.628450000000     0.526100000000     0          
O1       O      0.371550000000     0.908300000000     0.526100000000     0          
O1       O      0.091700000000     0.871550000000     0.526100000000     0          
O1       O      0.128450000000     0.591700000000     0.526100000000     0          
Cu1      Cu     0.250000000000     0.892650000000     0.642650000000     0          
O1       O      0.223900000000     0.908300000000     0.621550000000     0          
Cu1      Cu     0.107350000000     0.750000000000     0.642650000000     0          
O1       O      0.091700000000     0.723900000000     0.621550000000     0          
Cu1      Cu     0.250000000000     0.607350000000     0.642650000000     0          
O1       O      0.276100000000     0.591700000000     0.621550000000     0          
Cu1      Cu     0.392650000000     0.750000000000     0.642650000000     0          
O1       O      0.408300000000     0.776100000000     0.621550000000     0          
Cu1      Cu     0.250000000000     0.607350000000     0.857350000000     0          
O1       O      0.223900000000     0.591700000000     0.878450000000     0          
Cu1      Cu     0.392650000000     0.750000000000     0.857350000000     0          
O1       O      0.408300000000     0.723900000000     0.878450000000     0          
Cu1      Cu     0.250000000000     0.892650000000     0.857350000000     0          
O1       O      0.276100000000     0.908300000000     0.878450000000     0          
Cu1      Cu     0.107350000000     0.750000000000     0.857350000000     0          
O1       O      0.091700000000     0.776100000000     0.878450000000     0          
O1       O      0.371550000000     0.723900000000     0.658300000000     0          
O1       O      0.371550000000     0.776100000000     0.841700000000     0          
O1       O      0.223900000000     0.871550000000     0.841700000000     0          
O1       O      0.128450000000     0.723900000000     0.841700000000     0          
O1       O      0.276100000000     0.628450000000     0.841700000000     0          
O1       O      0.128450000000     0.776100000000     0.658300000000     0          
O1       O      0.223900000000     0.628450000000     0.658300000000     0          
O1       O      0.276100000000     0.871550000000     0.658300000000     0          
O1       O      0.091700000000     0.628450000000     0.526100000000     0          
O1       O      0.371550000000     0.591700000000     0.526100000000     0          
O1       O      0.408300000000     0.871550000000     0.526100000000     0          
O1       O      0.128450000000     0.908300000000     0.526100000000     0          
O1       O      0.091700000000     0.871550000000     0.973900000000     0          
O1       O      0.128450000000     0.591700000000     0.973900000000     0          
O1       O      0.408300000000     0.628450000000     0.973900000000     0          
O1       O      0.371550000000     0.908300000000     0.973900000000     0          
O1       O      0.276100000000     0.591700000000     0.878450000000     0          
O1       O      0.408300000000     0.776100000000     0.878450000000     0          
O1       O      0.223900000000     0.908300000000     0.878450000000     0          
O1       O      0.091700000000     0.723900000000     0.878450000000     0          
O1       O      0.276100000000     0.908300000000     0.621550000000     0          
O1       O      0.091700000000     0.776100000000     0.621550000000     0          
O1       O      0.223900000000     0.591700000000     0.621550000000     0          
O1       O      0.408300000000     0.723900000000     0.621550000000     0          
O1       O      0.128450000000     0.776100000000     0.841700000000     0          
O1       O      0.128450000000     0.723900000000     0.658300000000     0          
O1       O      0.276100000000     0.628450000000     0.658300000000     0          
O1       O      0.371550000000     0.776100000000     0.658300000000     0          
O1       O      0.223900000000     0.871550000000     0.658300000000     0          
O1       O      0.371550000000     0.723900000000     0.841700000000     0          
O1       O      0.276100000000     0.871550000000     0.841700000000     0          
O1       O      0.223900000000     0.628450000000     0.841700000000     0          
Cu1      Cu     0.642650000000     0.142650000000     0.000000000000     0          
O1       O      0.658300000000     0.121550000000     0.473900000000     0          
C1       C      0.648400000000     0.101600000000     0.465650000000     0          
C2       C      0.661000000000     0.089000000000     0.443500000000     0          
C3       C      0.682750000000     0.099700000000     0.432750000000     0          
H1       H      0.690100000000     0.114000000000     0.440100000000     0          
Cu1      Cu     0.857350000000     0.142650000000     0.000000000000     0          
O1       O      0.878450000000     0.158300000000     0.473900000000     0          
C1       C      0.898400000000     0.148400000000     0.465650000000     0          
C2       C      0.911000000000     0.161000000000     0.443500000000     0          
C3       C      0.900300000000     0.182750000000     0.432750000000     0          
H1       H      0.886000000000     0.190100000000     0.440100000000     0          
Cu1      Cu     0.857350000000     0.357350000000     0.000000000000     0          
O1       O      0.841700000000     0.378450000000     0.473900000000     0          
C1       C      0.851600000000     0.398400000000     0.465650000000     0          
C2       C      0.839000000000     0.411000000000     0.443500000000     0          
C3       C      0.817250000000     0.400300000000     0.432750000000     0          
H1       H      0.809900000000     0.386000000000     0.440100000000     0          
Cu1      Cu     0.642650000000     0.357350000000     0.000000000000     0          
O1       O      0.621550000000     0.341700000000     0.473900000000     0          
C1       C      0.601600000000     0.351600000000     0.465650000000     0          
C2       C      0.589000000000     0.339000000000     0.443500000000     0          
C3       C      0.599700000000     0.317250000000     0.432750000000     0          
H1       H      0.614000000000     0.309900000000     0.440100000000     0          
O1       O      0.658300000000     0.378450000000     0.026100000000     0          
C1       C      0.648400000000     0.398400000000     0.034350000000     0          
C2       C      0.661000000000     0.411000000000     0.056500000000     0          
C3       C      0.682750000000     0.400300000000     0.067250000000     0          
H1       H      0.690100000000     0.386000000000     0.059900000000     0          
O1       O      0.621550000000     0.158300000000     0.026100000000     0          
C1       C      0.601600000000     0.148400000000     0.034350000000     0          
C2       C      0.589000000000     0.161000000000     0.056500000000     0          
C3       C      0.599700000000     0.182750000000     0.067250000000     0          
H1       H      0.614000000000     0.190100000000     0.059900000000     0          
O1       O      0.841700000000     0.121550000000     0.026100000000     0          
C1       C      0.851600000000     0.101600000000     0.034350000000     0          
C2       C      0.839000000000     0.089000000000     0.056500000000     0          
C3       C      0.817250000000     0.099700000000     0.067250000000     0          
H1       H      0.809900000000     0.114000000000     0.059900000000     0          
O1       O      0.878450000000     0.341700000000     0.026100000000     0          
C1       C      0.898400000000     0.351600000000     0.034350000000     0          
C2       C      0.911000000000     0.339000000000     0.056500000000     0          
C3       C      0.900300000000     0.317250000000     0.067250000000     0          
H1       H      0.886000000000     0.309900000000     0.059900000000     0          
Cu1      Cu     0.500000000000     0.142650000000     0.142650000000     0          
O1       O      0.973900000000     0.158300000000     0.121550000000     0          
C1       C      0.965650000000     0.148400000000     0.101600000000     0          
C2       C      0.943500000000     0.161000000000     0.089000000000     0          
C3       C      0.932750000000     0.182750000000     0.099700000000     0          
H1       H      0.940100000000     0.190100000000     0.114000000000     0          
Cu1      Cu     0.857350000000     0.000000000000     0.142650000000     0          
O1       O      0.841700000000     0.473900000000     0.121550000000     0          
C1       C      0.851600000000     0.465650000000     0.101600000000     0          
C2       C      0.839000000000     0.443500000000     0.089000000000     0          
C3       C      0.817250000000     0.432750000000     0.099700000000     0          
H1       H      0.809900000000     0.440100000000     0.114000000000     0          
Cu1      Cu     0.500000000000     0.357350000000     0.142650000000     0          
O1       O      0.526100000000     0.341700000000     0.121550000000     0          
C1       C      0.534350000000     0.351600000000     0.101600000000     0          
C2       C      0.556500000000     0.339000000000     0.089000000000     0          
C3       C      0.567250000000     0.317250000000     0.099700000000     0          
H1       H      0.559900000000     0.309900000000     0.114000000000     0          
Cu1      Cu     0.642650000000     0.000000000000     0.142650000000     0          
O1       O      0.658300000000     0.026100000000     0.121550000000     0          
C1       C      0.648400000000     0.034350000000     0.101600000000     0          
C2       C      0.661000000000     0.056500000000     0.089000000000     0          
C3       C      0.682750000000     0.067250000000     0.099700000000     0          
H1       H      0.690100000000     0.059900000000     0.114000000000     0          
Cu1      Cu     0.500000000000     0.357350000000     0.357350000000     0          
O1       O      0.973900000000     0.341700000000     0.378450000000     0          
C1       C      0.965650000000     0.351600000000     0.398400000000     0          
C2       C      0.943500000000     0.339000000000     0.411000000000     0          
C3       C      0.932750000000     0.317250000000     0.400300000000     0          
H1       H      0.940100000000     0.309900000000     0.386000000000     0          
Cu1      Cu     0.642650000000     0.000000000000     0.357350000000     0          
O1       O      0.658300000000     0.473900000000     0.378450000000     0          
C1       C      0.648400000000     0.465650000000     0.398400000000     0          
C2       C      0.661000000000     0.443500000000     0.411000000000     0          
C3       C      0.682750000000     0.432750000000     0.400300000000     0          
H1       H      0.690100000000     0.440100000000     0.386000000000     0          
Cu1      Cu     0.500000000000     0.142650000000     0.357350000000     0          
O1       O      0.526100000000     0.158300000000     0.378450000000     0          
C1       C      0.534350000000     0.148400000000     0.398400000000     0          
C2       C      0.556500000000     0.161000000000     0.411000000000     0          
C3       C      0.567250000000     0.182750000000     0.400300000000     0          
H1       H      0.559900000000     0.190100000000     0.386000000000     0          
Cu1      Cu     0.857350000000     0.000000000000     0.357350000000     0          
O1       O      0.841700000000     0.026100000000     0.378450000000     0          
C1       C      0.851600000000     0.034350000000     0.398400000000     0          
C2       C      0.839000000000     0.056500000000     0.411000000000     0          
C3       C      0.817250000000     0.067250000000     0.400300000000     0          
H1       H      0.809900000000     0.059900000000     0.386000000000     0          
O1       O      0.621550000000     0.473900000000     0.158300000000     0          
C1       C      0.601600000000     0.465650000000     0.148400000000     0          
C2       C      0.589000000000     0.443500000000     0.161000000000     0          
C3       C      0.599700000000     0.432750000000     0.182750000000     0          
H1       H      0.614000000000     0.440100000000     0.190100000000     0          
O1       O      0.621550000000     0.026100000000     0.341700000000     0          
C1       C      0.601600000000     0.034350000000     0.351600000000     0          
C2       C      0.589000000000     0.056500000000     0.339000000000     0          
C3       C      0.599700000000     0.067250000000     0.317250000000     0          
H1       H      0.614000000000     0.059900000000     0.309900000000     0          
O1       O      0.973900000000     0.121550000000     0.341700000000     0          
C1       C      0.965650000000     0.101600000000     0.351600000000     0          
C2       C      0.943500000000     0.089000000000     0.339000000000     0          
C3       C      0.932750000000     0.099700000000     0.317250000000     0          
H1       H      0.940100000000     0.114000000000     0.309900000000     0          
O1       O      0.878450000000     0.473900000000     0.341700000000     0          
C1       C      0.898400000000     0.465650000000     0.351600000000     0          
C2       C      0.911000000000     0.443500000000     0.339000000000     0          
C3       C      0.900300000000     0.432750000000     0.317250000000     0          
H1       H      0.886000000000     0.440100000000     0.309900000000     0          
O1       O      0.526100000000     0.378450000000     0.341700000000     0          
C1       C      0.534350000000     0.398400000000     0.351600000000     0          
C2       C      0.556500000000     0.411000000000     0.339000000000     0          
C3       C      0.567250000000     0.400300000000     0.317250000000     0          
H1       H      0.559900000000     0.386000000000     0.309900000000     0          
O1       O      0.878450000000     0.026100000000     0.158300000000     0          
C1       C      0.898400000000     0.034350000000     0.148400000000     0          
C2       C      0.911000000000     0.056500000000     0.161000000000     0          
C3       C      0.900300000000     0.067250000000     0.182750000000     0          
H1       H      0.886000000000     0.059900000000     0.190100000000     0          
O1       O      0.973900000000     0.378450000000     0.158300000000     0          
C1       C      0.965650000000     0.398400000000     0.148400000000     0          
C2       C      0.943500000000     0.411000000000     0.161000000000     0          
C3       C      0.932750000000     0.400300000000     0.182750000000     0          
H1       H      0.940100000000     0.386000000000     0.190100000000     0          
O1       O      0.526100000000     0.121550000000     0.158300000000     0          
C1       C      0.534350000000     0.101600000000     0.148400000000     0          
C2       C      0.556500000000     0.089000000000     0.161000000000     0          
C3       C      0.567250000000     0.099700000000     0.182750000000     0          
H1       H      0.559900000000     0.114000000000     0.190100000000     0          
O1       O      0.841700000000     0.378450000000     0.026100000000     0          
C1       C      0.851600000000     0.398400000000     0.034350000000     0          
C2       C      0.839000000000     0.411000000000     0.056500000000     0          
C3       C      0.817250000000     0.400300000000     0.067250000000     0          
H1       H      0.809900000000     0.386000000000     0.059900000000     0          
O1       O      0.621550000000     0.341700000000     0.026100000000     0          
C1       C      0.601600000000     0.351600000000     0.034350000000     0          
C2       C      0.589000000000     0.339000000000     0.056500000000     0          
C3       C      0.599700000000     0.317250000000     0.067250000000     0          
H1       H      0.614000000000     0.309900000000     0.059900000000     0          
O1       O      0.658300000000     0.121550000000     0.026100000000     0          
C1       C      0.648400000000     0.101600000000     0.034350000000     0          
C2       C      0.661000000000     0.089000000000     0.056500000000     0          
C3       C      0.682750000000     0.099700000000     0.067250000000     0          
H1       H      0.690100000000     0.114000000000     0.059900000000     0          
O1       O      0.878450000000     0.158300000000     0.026100000000     0          
C1       C      0.898400000000     0.148400000000     0.034350000000     0          
C2       C      0.911000000000     0.161000000000     0.056500000000     0          
C3       C      0.900300000000     0.182750000000     0.067250000000     0          
H1       H      0.886000000000     0.190100000000     0.059900000000     0          
O1       O      0.841700000000     0.121550000000     0.473900000000     0          
C1       C      0.851600000000     0.101600000000     0.465650000000     0          
C2       C      0.839000000000     0.089000000000     0.443500000000     0          
C3       C      0.817250000000     0.099700000000     0.432750000000     0          
H1       H      0.809900000000     0.114000000000     0.440100000000     0          
O1       O      0.878450000000     0.341700000000     0.473900000000     0          
C1       C      0.898400000000     0.351600000000     0.465650000000     0          
C2       C      0.911000000000     0.339000000000     0.443500000000     0          
C3       C      0.900300000000     0.317250000000     0.432750000000     0          
H1       H      0.886000000000     0.309900000000     0.440100000000     0          
O1       O      0.658300000000     0.378450000000     0.473900000000     0          
C1       C      0.648400000000     0.398400000000     0.465650000000     0          
C2       C      0.661000000000     0.411000000000     0.443500000000     0          
C3       C      0.682750000000     0.400300000000     0.432750000000     0          
H1       H      0.690100000000     0.386000000000     0.440100000000     0          
O1       O      0.621550000000     0.158300000000     0.473900000000     0          
C1       C      0.601600000000     0.148400000000     0.465650000000     0          
C2       C      0.589000000000     0.161000000000     0.443500000000     0          
C3       C      0.599700000000     0.182750000000     0.432750000000     0          
H1       H      0.614000000000     0.190100000000     0.440100000000     0          
O1       O      0.526100000000     0.341700000000     0.378450000000     0          
C1       C      0.534350000000     0.351600000000     0.398400000000     0          
C2       C      0.556500000000     0.339000000000     0.411000000000     0          
C3       C      0.567250000000     0.317250000000     0.400300000000     0          
H1       H      0.559900000000     0.309900000000     0.386000000000     0          
O1       O      0.658300000000     0.026100000000     0.378450000000     0          
C1       C      0.648400000000     0.034350000000     0.398400000000     0          
C2       C      0.661000000000     0.056500000000     0.411000000000     0          
C3       C      0.682750000000     0.067250000000     0.400300000000     0          
H1       H      0.690100000000     0.059900000000     0.386000000000     0          
O1       O      0.973900000000     0.158300000000     0.378450000000     0          
C1       C      0.965650000000     0.148400000000     0.398400000000     0          
C2       C      0.943500000000     0.161000000000     0.411000000000     0          
C3       C      0.932750000000     0.182750000000     0.400300000000     0          
H1       H      0.940100000000     0.190100000000     0.386000000000     0          
O1       O      0.841700000000     0.473900000000     0.378450000000     0          
C1       C      0.851600000000     0.465650000000     0.398400000000     0          
C2       C      0.839000000000     0.443500000000     0.411000000000     0          
C3       C      0.817250000000     0.432750000000     0.400300000000     0          
H1       H      0.809900000000     0.440100000000     0.386000000000     0          
O1       O      0.526100000000     0.158300000000     0.121550000000     0          
C1       C      0.534350000000     0.148400000000     0.101600000000     0          
C2       C      0.556500000000     0.161000000000     0.089000000000     0          
C3       C      0.567250000000     0.182750000000     0.099700000000     0          
H1       H      0.559900000000     0.190100000000     0.114000000000     0          
O1       O      0.841700000000     0.026100000000     0.121550000000     0          
C1       C      0.851600000000     0.034350000000     0.101600000000     0          
C2       C      0.839000000000     0.056500000000     0.089000000000     0          
C3       C      0.817250000000     0.067250000000     0.099700000000     0          
H1       H      0.809900000000     0.059900000000     0.114000000000     0          
O1       O      0.973900000000     0.341700000000     0.121550000000     0          
C1       C      0.965650000000     0.351600000000     0.101600000000     0          
C2       C      0.943500000000     0.339000000000     0.089000000000     0          
C3       C      0.932750000000     0.317250000000     0.099700000000     0          
H1       H      0.940100000000     0.309900000000     0.114000000000     0          
O1       O      0.658300000000     0.473900000000     0.121550000000     0          
C1       C      0.648400000000     0.465650000000     0.101600000000     0          
C2       C      0.661000000000     0.443500000000     0.089000000000     0          
C3       C      0.682750000000     0.432750000000     0.099700000000     0          
H1       H      0.690100000000     0.440100000000     0.114000000000     0          
O1       O      0.878450000000     0.026100000000     0.341700000000     0          
C1       C      0.898400000000     0.034350000000     0.351600000000     0          
C2       C      0.911000000000     0.056500000000     0.339000000000     0          
C3       C      0.900300000000     0.067250000000     0.317250000000     0          
H1       H      0.886000000000     0.059900000000     0.309900000000     0          
O1       O      0.878450000000     0.473900000000     0.158300000000     0          
C1       C      0.898400000000     0.465650000000     0.148400000000     0          
C2       C      0.911000000000     0.443500000000     0.161000000000     0          
C3       C      0.900300000000     0.432750000000     0.182750000000     0          
H1       H      0.886000000000     0.440100000000     0.190100000000     0          
O1       O      0.526100000000     0.378450000000     0.158300000000     0          
C1       C      0.534350000000     0.398400000000     0.148400000000     0          
C2       C      0.556500000000     0.411000000000     0.161000000000     0          
C3       C      0.567250000000     0.400300000000     0.182750000000     0          
H1       H      0.559900000000     0.386000000000     0.190100000000     0          
O1       O      0.621550000000     0.026100000000     0.158300000000     0          
C1       C      0.601600000000     0.034350000000     0.148400000000     0          
C2       C      0.589000000000     0.056500000000     0.161000000000     0          
C3       C      0.599700000000     0.067250000000     0.182750000000     0          
H1       H      0.614000000000     0.059900000000     0.190100000000     0          
O1       O      0.973900000000     0.121550000000     0.158300000000     0          
C1       C      0.965650000000     0.101600000000     0.148400000000     0          
C2       C      0.943500000000     0.089000000000     0.161000000000     0          
C3       C      0.932750000000     0.099700000000     0.182750000000     0          
H1       H      0.940100000000     0.114000000000     0.190100000000     0          
O1       O      0.621550000000     0.473900000000     0.341700000000     0          
C1       C      0.601600000000     0.465650000000     0.351600000000     0          
C2       C      0.589000000000     0.443500000000     0.339000000000     0          
C3       C      0.599700000000     0.432750000000     0.317250000000     0          
H1       H      0.614000000000     0.440100000000     0.309900000000     0          
O1       O      0.526100000000     0.121550000000     0.341700000000     0          
C1       C      0.534350000000     0.101600000000     0.351600000000     0          
C2       C      0.556500000000     0.089000000000     0.339000000000     0          
C3       C      0.567250000000     0.099700000000     0.317250000000     0          
H1       H      0.559900000000     0.114000000000     0.309900000000     0          
O1       O      0.973900000000     0.378450000000     0.341700000000     0          
C1       C      0.965650000000     0.398400000000     0.351600000000     0          
C2       C      0.943500000000     0.411000000000     0.339000000000     0          
C3       C      0.932750000000     0.400300000000     0.317250000000     0          
H1       H      0.940100000000     0.386000000000     0.309900000000     0          
Cu1      Cu     0.642650000000     0.392650000000     0.250000000000     0          
O1       O      0.658300000000     0.371550000000     0.223900000000     0          
C1       C      0.648400000000     0.351600000000     0.215650000000     0          
C2       C      0.661000000000     0.339000000000     0.193500000000     0          
C3       C      0.682750000000     0.349700000000     0.182750000000     0          
H1       H      0.690100000000     0.364000000000     0.190100000000     0          
Cu1      Cu     0.857350000000     0.392650000000     0.250000000000     0          
O1       O      0.878450000000     0.408300000000     0.223900000000     0          
C1       C      0.898400000000     0.398400000000     0.215650000000     0          
C2       C      0.911000000000     0.411000000000     0.193500000000     0          
Cu1      Cu     0.857350000000     0.107350000000     0.250000000000     0          
O1       O      0.841700000000     0.128450000000     0.223900000000     0          
C1       C      0.851600000000     0.148400000000     0.215650000000     0          
C2       C      0.839000000000     0.161000000000     0.193500000000     0          
C3       C      0.817250000000     0.150300000000     0.182750000000     0          
H1       H      0.809900000000     0.136000000000     0.190100000000     0          
Cu1      Cu     0.642650000000     0.107350000000     0.250000000000     0          
O1       O      0.621550000000     0.091700000000     0.223900000000     0          
C1       C      0.601600000000     0.101600000000     0.215650000000     0          
C2       C      0.589000000000     0.089000000000     0.193500000000     0          
O1       O      0.658300000000     0.128450000000     0.276100000000     0          
C1       C      0.648400000000     0.148400000000     0.284350000000     0          
C2       C      0.661000000000     0.161000000000     0.306500000000     0          
C3       C      0.682750000000     0.150300000000     0.317250000000     0          
H1       H      0.690100000000     0.136000000000     0.309900000000     0          
O1       O      0.621550000000     0.408300000000     0.276100000000     0          
C1       C      0.601600000000     0.398400000000     0.284350000000     0          
C2       C      0.589000000000     0.411000000000     0.306500000000     0          
O1       O      0.841700000000     0.371550000000     0.276100000000     0          
C1       C      0.851600000000     0.351600000000     0.284350000000     0          
C2       C      0.839000000000     0.339000000000     0.306500000000     0          
C3       C      0.817250000000     0.349700000000     0.317250000000     0          
H1       H      0.809900000000     0.364000000000     0.309900000000     0          
O1       O      0.878450000000     0.091700000000     0.276100000000     0          
C1       C      0.898400000000     0.101600000000     0.284350000000     0          
C2       C      0.911000000000     0.089000000000     0.306500000000     0          
Cu1      Cu     0.500000000000     0.392650000000     0.392650000000     0          
O1       O      0.973900000000     0.408300000000     0.371550000000     0          
C3       C      0.932750000000     0.432750000000     0.349700000000     0          
H1       H      0.940100000000     0.440100000000     0.364000000000     0          
Cu1      Cu     0.857350000000     0.250000000000     0.392650000000     0          
O1       O      0.841700000000     0.223900000000     0.371550000000     0          
C1       C      0.851600000000     0.215650000000     0.351600000000     0          
C2       C      0.839000000000     0.193500000000     0.339000000000     0          
C3       C      0.817250000000     0.182750000000     0.349700000000     0          
H1       H      0.809900000000     0.190100000000     0.364000000000     0          
Cu1      Cu     0.500000000000     0.107350000000     0.392650000000     0          
O1       O      0.526100000000     0.091700000000     0.371550000000     0          
C3       C      0.567250000000     0.067250000000     0.349700000000     0          
H1       H      0.559900000000     0.059900000000     0.364000000000     0          
Cu1      Cu     0.642650000000     0.250000000000     0.392650000000     0          
O1       O      0.658300000000     0.276100000000     0.371550000000     0          
C1       C      0.648400000000     0.284350000000     0.351600000000     0          
C2       C      0.661000000000     0.306500000000     0.339000000000     0          
C3       C      0.682750000000     0.317250000000     0.349700000000     0          
H1       H      0.690100000000     0.309900000000     0.364000000000     0          
Cu1      Cu     0.500000000000     0.107350000000     0.107350000000     0          
O1       O      0.973900000000     0.091700000000     0.128450000000     0          
C3       C      0.932750000000     0.067250000000     0.150300000000     0          
H1       H      0.940100000000     0.059900000000     0.136000000000     0          
Cu1      Cu     0.642650000000     0.250000000000     0.107350000000     0          
O1       O      0.658300000000     0.223900000000     0.128450000000     0          
C1       C      0.648400000000     0.215650000000     0.148400000000     0          
C2       C      0.661000000000     0.193500000000     0.161000000000     0          
C3       C      0.682750000000     0.182750000000     0.150300000000     0          
H1       H      0.690100000000     0.190100000000     0.136000000000     0          
Cu1      Cu     0.500000000000     0.392650000000     0.107350000000     0          
O1       O      0.526100000000     0.408300000000     0.128450000000     0          
C3       C      0.567250000000     0.432750000000     0.150300000000     0          
H1       H      0.559900000000     0.440100000000     0.136000000000     0          
Cu1      Cu     0.857350000000     0.250000000000     0.107350000000     0          
O1       O      0.841700000000     0.276100000000     0.128450000000     0          
C1       C      0.851600000000     0.284350000000     0.148400000000     0          
C2       C      0.839000000000     0.306500000000     0.161000000000     0          
C3       C      0.817250000000     0.317250000000     0.150300000000     0          
H1       H      0.809900000000     0.309900000000     0.136000000000     0          
O1       O      0.621550000000     0.223900000000     0.408300000000     0          
C1       C      0.601600000000     0.215650000000     0.398400000000     0          
C2       C      0.589000000000     0.193500000000     0.411000000000     0          
O1       O      0.621550000000     0.276100000000     0.091700000000     0          
C1       C      0.601600000000     0.284350000000     0.101600000000     0          
C2       C      0.589000000000     0.306500000000     0.089000000000     0          
O1       O      0.973900000000     0.371550000000     0.091700000000     0          
C3       C      0.932750000000     0.349700000000     0.067250000000     0          
H1       H      0.940100000000     0.364000000000     0.059900000000     0          
O1       O      0.878450000000     0.223900000000     0.091700000000     0          
C1       C      0.898400000000     0.215650000000     0.101600000000     0          
C2       C      0.911000000000     0.193500000000     0.089000000000     0          
O1       O      0.526100000000     0.128450000000     0.091700000000     0          
C3       C      0.567250000000     0.150300000000     0.067250000000     0          
H1       H      0.559900000000     0.136000000000     0.059900000000     0          
O1       O      0.878450000000     0.276100000000     0.408300000000     0          
C1       C      0.898400000000     0.284350000000     0.398400000000     0          
C2       C      0.911000000000     0.306500000000     0.411000000000     0          
O1       O      0.973900000000     0.128450000000     0.408300000000     0          
C3       C      0.932750000000     0.150300000000     0.432750000000     0          
H1       H      0.940100000000     0.136000000000     0.440100000000     0          
O1       O      0.526100000000     0.371550000000     0.408300000000     0          
C3       C      0.567250000000     0.349700000000     0.432750000000     0          
H1       H      0.559900000000     0.364000000000     0.440100000000     0          
O1       O      0.841700000000     0.128450000000     0.276100000000     0          
C1       C      0.851600000000     0.148400000000     0.284350000000     0          
C2       C      0.839000000000     0.161000000000     0.306500000000     0          
C3       C      0.817250000000     0.150300000000     0.317250000000     0          
H1       H      0.809900000000     0.136000000000     0.309900000000     0          
O1       O      0.621550000000     0.091700000000     0.276100000000     0          
C1       C      0.601600000000     0.101600000000     0.284350000000     0          
C2       C      0.589000000000     0.089000000000     0.306500000000     0          
O1       O      0.658300000000     0.371550000000     0.276100000000     0          
C1       C      0.648400000000     0.351600000000     0.284350000000     0          
C2       C      0.661000000000     0.339000000000     0.306500000000     0          
C3       C      0.682750000000     0.349700000000     0.317250000000     0          
H1       H      0.690100000000     0.364000000000     0.309900000000     0          
O1       O      0.878450000000     0.408300000000     0.276100000000     0          
C1       C      0.898400000000     0.398400000000     0.284350000000     0          
C2       C      0.911000000000     0.411000000000     0.306500000000     0          
O1       O      0.841700000000     0.371550000000     0.223900000000     0          
C1       C      0.851600000000     0.351600000000     0.215650000000     0          
C2       C      0.839000000000     0.339000000000     0.193500000000     0          
C3       C      0.817250000000     0.349700000000     0.182750000000     0          
H1       H      0.809900000000     0.364000000000     0.190100000000     0          
O1       O      0.878450000000     0.091700000000     0.223900000000     0          
C1       C      0.898400000000     0.101600000000     0.215650000000     0          
C2       C      0.911000000000     0.089000000000     0.193500000000     0          
O1       O      0.658300000000     0.128450000000     0.223900000000     0          
C1       C      0.648400000000     0.148400000000     0.215650000000     0          
C2       C      0.661000000000     0.161000000000     0.193500000000     0          
C3       C      0.682750000000     0.150300000000     0.182750000000     0          
H1       H      0.690100000000     0.136000000000     0.190100000000     0          
O1       O      0.621550000000     0.408300000000     0.223900000000     0          
C1       C      0.601600000000     0.398400000000     0.215650000000     0          
C2       C      0.589000000000     0.411000000000     0.193500000000     0          
O1       O      0.526100000000     0.091700000000     0.128450000000     0          
C3       C      0.567250000000     0.067250000000     0.150300000000     0          
H1       H      0.559900000000     0.059900000000     0.136000000000     0          
O1       O      0.658300000000     0.276100000000     0.128450000000     0          
C1       C      0.648400000000     0.284350000000     0.148400000000     0          
C2       C      0.661000000000     0.306500000000     0.161000000000     0          
C3       C      0.682750000000     0.317250000000     0.150300000000     0          
H1       H      0.690100000000     0.309900000000     0.136000000000     0          
O1       O      0.973900000000     0.408300000000     0.128450000000     0          
C3       C      0.932750000000     0.432750000000     0.150300000000     0          
H1       H      0.940100000000     0.440100000000     0.136000000000     0          
O1       O      0.841700000000     0.223900000000     0.128450000000     0          
C1       C      0.851600000000     0.215650000000     0.148400000000     0          
C2       C      0.839000000000     0.193500000000     0.161000000000     0          
C3       C      0.817250000000     0.182750000000     0.150300000000     0          
H1       H      0.809900000000     0.190100000000     0.136000000000     0          
O1       O      0.526100000000     0.408300000000     0.371550000000     0          
C3       C      0.567250000000     0.432750000000     0.349700000000     0          
H1       H      0.559900000000     0.440100000000     0.364000000000     0          
O1       O      0.841700000000     0.276100000000     0.371550000000     0          
C1       C      0.851600000000     0.284350000000     0.351600000000     0          
C2       C      0.839000000000     0.306500000000     0.339000000000     0          
C3       C      0.817250000000     0.317250000000     0.349700000000     0          
H1       H      0.809900000000     0.309900000000     0.364000000000     0          
O1       O      0.973900000000     0.091700000000     0.371550000000     0          
C3       C      0.932750000000     0.067250000000     0.349700000000     0          
H1       H      0.940100000000     0.059900000000     0.364000000000     0          
O1       O      0.658300000000     0.223900000000     0.371550000000     0          
C1       C      0.648400000000     0.215650000000     0.351600000000     0          
C2       C      0.661000000000     0.193500000000     0.339000000000     0          
C3       C      0.682750000000     0.182750000000     0.349700000000     0          
H1       H      0.690100000000     0.190100000000     0.364000000000     0          
O1       O      0.878450000000     0.276100000000     0.091700000000     0          
C1       C      0.898400000000     0.284350000000     0.101600000000     0          
C2       C      0.911000000000     0.306500000000     0.089000000000     0          
O1       O      0.878450000000     0.223900000000     0.408300000000     0          
C1       C      0.898400000000     0.215650000000     0.398400000000     0          
C2       C      0.911000000000     0.193500000000     0.411000000000     0          
O1       O      0.526100000000     0.128450000000     0.408300000000     0          
C3       C      0.567250000000     0.150300000000     0.432750000000     0          
H1       H      0.559900000000     0.136000000000     0.440100000000     0          
O1       O      0.621550000000     0.276100000000     0.408300000000     0          
C1       C      0.601600000000     0.284350000000     0.398400000000     0          
C2       C      0.589000000000     0.306500000000     0.411000000000     0          
O1       O      0.973900000000     0.371550000000     0.408300000000     0          
C3       C      0.932750000000     0.349700000000     0.432750000000     0          
H1       H      0.940100000000     0.364000000000     0.440100000000     0          
O1       O      0.621550000000     0.223900000000     0.091700000000     0          
C1       C      0.601600000000     0.215650000000     0.101600000000     0          
C2       C      0.589000000000     0.193500000000     0.089000000000     0          
O1       O      0.526100000000     0.371550000000     0.091700000000     0          
C3       C      0.567250000000     0.349700000000     0.067250000000     0          
H1       H      0.559900000000     0.364000000000     0.059900000000     0          
O1       O      0.973900000000     0.128450000000     0.091700000000     0          
C3       C      0.932750000000     0.150300000000     0.067250000000     0          
H1       H      0.940100000000     0.136000000000     0.059900000000     0          
Cu1      Cu     0.892650000000     0.142650000000     0.250000000000     0          
O1       O      0.908300000000     0.121550000000     0.223900000000     0          
Cu1      Cu     0.607350000000     0.142650000000     0.250000000000     0          
O1       O      0.628450000000     0.158300000000     0.223900000000     0          
C3       C      0.650300000000     0.182750000000     0.182750000000     0          
H1       H      0.636000000000     0.190100000000     0.190100000000     0          
Cu1      Cu     0.607350000000     0.357350000000     0.250000000000     0          
O1       O      0.591700000000     0.378450000000     0.223900000000     0          
Cu1      Cu     0.892650000000     0.357350000000     0.250000000000     0          
O1       O      0.871550000000     0.341700000000     0.223900000000     0          
C3       C      0.849700000000     0.317250000000     0.182750000000     0          
H1       H      0.864000000000     0.309900000000     0.190100000000     0          
O1       O      0.908300000000     0.378450000000     0.276100000000     0          
O1       O      0.871550000000     0.158300000000     0.276100000000     0          
C3       C      0.849700000000     0.182750000000     0.317250000000     0          
H1       H      0.864000000000     0.190100000000     0.309900000000     0          
O1       O      0.591700000000     0.121550000000     0.276100000000     0          
O1       O      0.628450000000     0.341700000000     0.276100000000     0          
C3       C      0.650300000000     0.317250000000     0.317250000000     0          
H1       H      0.636000000000     0.309900000000     0.309900000000     0          
Cu1      Cu     0.750000000000     0.142650000000     0.392650000000     0          
O1       O      0.723900000000     0.158300000000     0.371550000000     0          
C1       C      0.715650000000     0.148400000000     0.351600000000     0          
C2       C      0.693500000000     0.161000000000     0.339000000000     0          
Cu1      Cu     0.607350000000     0.000000000000     0.392650000000     0          
O1       O      0.591700000000     0.473900000000     0.371550000000     0          
Cu1      Cu     0.750000000000     0.357350000000     0.392650000000     0          
O1       O      0.776100000000     0.341700000000     0.371550000000     0          
C1       C      0.784350000000     0.351600000000     0.351600000000     0          
C2       C      0.806500000000     0.339000000000     0.339000000000     0          
Cu1      Cu     0.892650000000     0.000000000000     0.392650000000     0          
O1       O      0.908300000000     0.026100000000     0.371550000000     0          
Cu1      Cu     0.750000000000     0.357350000000     0.107350000000     0          
O1       O      0.723900000000     0.341700000000     0.128450000000     0          
C1       C      0.715650000000     0.351600000000     0.148400000000     0          
C2       C      0.693500000000     0.339000000000     0.161000000000     0          
Cu1      Cu     0.892650000000     0.000000000000     0.107350000000     0          
O1       O      0.908300000000     0.473900000000     0.128450000000     0          
Cu1      Cu     0.750000000000     0.142650000000     0.107350000000     0          
O1       O      0.776100000000     0.158300000000     0.128450000000     0          
C1       C      0.784350000000     0.148400000000     0.148400000000     0          
C2       C      0.806500000000     0.161000000000     0.161000000000     0          
Cu1      Cu     0.607350000000     0.000000000000     0.107350000000     0          
O1       O      0.591700000000     0.026100000000     0.128450000000     0          
O1       O      0.871550000000     0.473900000000     0.408300000000     0          
C3       C      0.849700000000     0.432750000000     0.432750000000     0          
H1       H      0.864000000000     0.440100000000     0.440100000000     0          
O1       O      0.871550000000     0.026100000000     0.091700000000     0          
C3       C      0.849700000000     0.067250000000     0.067250000000     0          
H1       H      0.864000000000     0.059900000000     0.059900000000     0          
O1       O      0.723900000000     0.121550000000     0.091700000000     0          
C1       C      0.715650000000     0.101600000000     0.101600000000     0          
C2       C      0.693500000000     0.089000000000     0.089000000000     0          
O1       O      0.628450000000     0.473900000000     0.091700000000     0          
C3       C      0.650300000000     0.432750000000     0.067250000000     0          
H1       H      0.636000000000     0.440100000000     0.059900000000     0          
O1       O      0.776100000000     0.378450000000     0.091700000000     0          
C1       C      0.784350000000     0.398400000000     0.101600000000     0          
C2       C      0.806500000000     0.411000000000     0.089000000000     0          
O1       O      0.628450000000     0.026100000000     0.408300000000     0          
C3       C      0.650300000000     0.067250000000     0.432750000000     0          
H1       H      0.636000000000     0.059900000000     0.440100000000     0          
O1       O      0.723900000000     0.378450000000     0.408300000000     0          
C1       C      0.715650000000     0.398400000000     0.398400000000     0          
C2       C      0.693500000000     0.411000000000     0.411000000000     0          
O1       O      0.776100000000     0.121550000000     0.408300000000     0          
C1       C      0.784350000000     0.101600000000     0.398400000000     0          
C2       C      0.806500000000     0.089000000000     0.411000000000     0          
O1       O      0.591700000000     0.378450000000     0.276100000000     0          
O1       O      0.871550000000     0.341700000000     0.276100000000     0          
C3       C      0.849700000000     0.317250000000     0.317250000000     0          
H1       H      0.864000000000     0.309900000000     0.309900000000     0          
O1       O      0.908300000000     0.121550000000     0.276100000000     0          
O1       O      0.628450000000     0.158300000000     0.276100000000     0          
C3       C      0.650300000000     0.182750000000     0.317250000000     0          
H1       H      0.636000000000     0.190100000000     0.309900000000     0          
O1       O      0.591700000000     0.121550000000     0.223900000000     0          
O1       O      0.628450000000     0.341700000000     0.223900000000     0          
C3       C      0.650300000000     0.317250000000     0.182750000000     0          
H1       H      0.636000000000     0.309900000000     0.190100000000     0          
O1       O      0.908300000000     0.378450000000     0.223900000000     0          
O1       O      0.871550000000     0.158300000000     0.223900000000     0          
C3       C      0.849700000000     0.182750000000     0.182750000000     0          
H1       H      0.864000000000     0.190100000000     0.190100000000     0          
O1       O      0.776100000000     0.341700000000     0.128450000000     0          
C1       C      0.784350000000     0.351600000000     0.148400000000     0          
C2       C      0.806500000000     0.339000000000     0.161000000000     0          
O1       O      0.908300000000     0.026100000000     0.128450000000     0          
O1       O      0.723900000000     0.158300000000     0.128450000000     0          
C1       C      0.715650000000     0.148400000000     0.148400000000     0          
C2       C      0.693500000000     0.161000000000     0.161000000000     0          
O1       O      0.591700000000     0.473900000000     0.128450000000     0          
O1       O      0.776100000000     0.158300000000     0.371550000000     0          
C1       C      0.784350000000     0.148400000000     0.351600000000     0          
C2       C      0.806500000000     0.161000000000     0.339000000000     0          
O1       O      0.591700000000     0.026100000000     0.371550000000     0          
O1       O      0.723900000000     0.341700000000     0.371550000000     0          
C1       C      0.715650000000     0.351600000000     0.351600000000     0          
C2       C      0.693500000000     0.339000000000     0.339000000000     0          
O1       O      0.908300000000     0.473900000000     0.371550000000     0          
O1       O      0.628450000000     0.026100000000     0.091700000000     0          
C3       C      0.650300000000     0.067250000000     0.067250000000     0          
H1       H      0.636000000000     0.059900000000     0.059900000000     0          
O1       O      0.628450000000     0.473900000000     0.408300000000     0          
C3       C      0.650300000000     0.432750000000     0.432750000000     0          
H1       H      0.636000000000     0.440100000000     0.440100000000     0          
O1       O      0.776100000000     0.378450000000     0.408300000000     0          
C1       C      0.784350000000     0.398400000000     0.398400000000     0          
C2       C      0.806500000000     0.411000000000     0.411000000000     0          
O1       O      0.871550000000     0.026100000000     0.408300000000     0          
C3       C      0.849700000000     0.067250000000     0.432750000000     0          
H1       H      0.864000000000     0.059900000000     0.440100000000     0          
O1       O      0.723900000000     0.121550000000     0.408300000000     0          
C1       C      0.715650000000     0.101600000000     0.398400000000     0          
C2       C      0.693500000000     0.089000000000     0.411000000000     0          
O1       O      0.871550000000     0.473900000000     0.091700000000     0          
C3       C      0.849700000000     0.432750000000     0.067250000000     0          
H1       H      0.864000000000     0.440100000000     0.059900000000     0          
O1       O      0.776100000000     0.121550000000     0.091700000000     0          
C1       C      0.784350000000     0.101600000000     0.101600000000     0          
C2       C      0.806500000000     0.089000000000     0.089000000000     0          
O1       O      0.723900000000     0.378450000000     0.091700000000     0          
C1       C      0.715650000000     0.398400000000     0.101600000000     0          
C2       C      0.693500000000     0.411000000000     0.089000000000     0          
Cu1      Cu     0.892650000000     0.392650000000     0.000000000000     0          
O1       O      0.908300000000     0.371550000000     0.473900000000     0          
Cu1      Cu     0.607350000000     0.392650000000     0.000000000000     0          
O1       O      0.628450000000     0.408300000000     0.473900000000     0          
Cu1      Cu     0.607350000000     0.107350000000     0.000000000000     0          
O1       O      0.591700000000     0.128450000000     0.473900000000     0          
Cu1      Cu     0.892650000000     0.107350000000     0.000000000000     0          
O1       O      0.871550000000     0.091700000000     0.473900000000     0          
O1       O      0.908300000000     0.128450000000     0.026100000000     0          
O1       O      0.871550000000     0.408300000000     0.026100000000     0          
O1       O      0.591700000000     0.371550000000     0.026100000000     0          
O1       O      0.628450000000     0.091700000000     0.026100000000     0          
Cu1      Cu     0.750000000000     0.392650000000     0.142650000000     0          
O1       O      0.723900000000     0.408300000000     0.121550000000     0          
Cu1      Cu     0.607350000000     0.250000000000     0.142650000000     0          
O1       O      0.591700000000     0.223900000000     0.121550000000     0          
Cu1      Cu     0.750000000000     0.107350000000     0.142650000000     0          
O1       O      0.776100000000     0.091700000000     0.121550000000     0          
Cu1      Cu     0.892650000000     0.250000000000     0.142650000000     0          
O1       O      0.908300000000     0.276100000000     0.121550000000     0          
Cu1      Cu     0.750000000000     0.107350000000     0.357350000000     0          
O1       O      0.723900000000     0.091700000000     0.378450000000     0          
Cu1      Cu     0.892650000000     0.250000000000     0.357350000000     0          
O1       O      0.908300000000     0.223900000000     0.378450000000     0          
Cu1      Cu     0.750000000000     0.392650000000     0.357350000000     0          
O1       O      0.776100000000     0.408300000000     0.378450000000     0          
Cu1      Cu     0.607350000000     0.250000000000     0.357350000000     0          
O1       O      0.591700000000     0.276100000000     0.378450000000     0          
O1       O      0.871550000000     0.223900000000     0.158300000000     0          
O1       O      0.871550000000     0.276100000000     0.341700000000     0          
O1       O      0.723900000000     0.371550000000     0.341700000000     0          
O1       O      0.628450000000     0.223900000000     0.341700000000     0          
O1       O      0.776100000000     0.128450000000     0.341700000000     0          
O1       O      0.628450000000     0.276100000000     0.158300000000     0          
O1       O      0.723900000000     0.128450000000     0.158300000000     0          
O1       O      0.776100000000     0.371550000000     0.158300000000     0          
O1       O      0.591700000000     0.128450000000     0.026100000000     0          
O1       O      0.871550000000     0.091700000000     0.026100000000     0          
O1       O      0.908300000000     0.371550000000     0.026100000000     0          
O1       O      0.628450000000     0.408300000000     0.026100000000     0          
O1       O      0.591700000000     0.371550000000     0.473900000000     0          
O1       O      0.628450000000     0.091700000000     0.473900000000     0          
O1       O      0.908300000000     0.128450000000     0.473900000000     0          
O1       O      0.871550000000     0.408300000000     0.473900000000     0          
O1       O      0.776100000000     0.091700000000     0.378450000000     0          
O1       O      0.908300000000     0.276100000000     0.378450000000     0          
O1       O      0.723900000000     0.408300000000     0.378450000000     0          
O1       O      0.591700000000     0.223900000000     0.378450000000     0          
O1       O      0.776100000000     0.408300000000     0.121550000000     0          
O1       O      0.591700000000     0.276100000000     0.121550000000     0          
O1       O      0.723900000000     0.091700000000     0.121550000000     0          
O1       O      0.908300000000     0.223900000000     0.121550000000     0          
O1       O      0.628450000000     0.276100000000     0.341700000000     0          
O1       O      0.628450000000     0.223900000000     0.158300000000     0          
O1       O      0.776100000000     0.128450000000     0.158300000000     0          
O1       O      0.871550000000     0.276100000000     0.158300000000     0          
O1       O      0.723900000000     0.371550000000     0.158300000000     0          
O1       O      0.871550000000     0.223900000000     0.341700000000     0          
O1       O      0.776100000000     0.371550000000     0.341700000000     0          
O1       O      0.723900000000     0.128450000000     0.341700000000     0          
Cu1      Cu     0.642650000000     0.142650000000     0.500000000000     0          
O1       O      0.658300000000     0.121550000000     0.973900000000     0          
C1       C      0.648400000000     0.101600000000     0.965650000000     0          
C2       C      0.661000000000     0.089000000000     0.943500000000     0          
C3       C      0.682750000000     0.099700000000     0.932750000000     0          
H1       H      0.690100000000     0.114000000000     0.940100000000     0          
Cu1      Cu     0.857350000000     0.142650000000     0.500000000000     0          
O1       O      0.878450000000     0.158300000000     0.973900000000     0          
C1       C      0.898400000000     0.148400000000     0.965650000000     0          
C2       C      0.911000000000     0.161000000000     0.943500000000     0          
C3       C      0.900300000000     0.182750000000     0.932750000000     0          
H1       H      0.886000000000     0.190100000000     0.940100000000     0          
Cu1      Cu     0.857350000000     0.357350000000     0.500000000000     0          
O1       O      0.841700000000     0.378450000000     0.973900000000     0          
C1       C      0.851600000000     0.398400000000     0.965650000000     0          
C2       C      0.839000000000     0.411000000000     0.943500000000     0          
C3       C      0.817250000000     0.400300000000     0.932750000000     0          
H1       H      0.809900000000     0.386000000000     0.940100000000     0          
Cu1      Cu     0.642650000000     0.357350000000     0.500000000000     0          
O1       O      0.621550000000     0.341700000000     0.973900000000     0          
C1       C      0.601600000000     0.351600000000     0.965650000000     0          
C2       C      0.589000000000     0.339000000000     0.943500000000     0          
C3       C      0.599700000000     0.317250000000     0.932750000000     0          
H1       H      0.614000000000     0.309900000000     0.940100000000     0          
O1       O      0.658300000000     0.378450000000     0.526100000000     0          
C1       C      0.648400000000     0.398400000000     0.534350000000     0          
C2       C      0.661000000000     0.411000000000     0.556500000000     0          
C3       C      0.682750000000     0.400300000000     0.567250000000     0          
H1       H      0.690100000000     0.386000000000     0.559900000000     0          
O1       O      0.621550000000     0.158300000000     0.526100000000     0          
C1       C      0.601600000000     0.148400000000     0.534350000000     0          
C2       C      0.589000000000     0.161000000000     0.556500000000     0          
C3       C      0.599700000000     0.182750000000     0.567250000000     0          
H1       H      0.614000000000     0.190100000000     0.559900000000     0          
O1       O      0.841700000000     0.121550000000     0.526100000000     0          
C1       C      0.851600000000     0.101600000000     0.534350000000     0          
C2       C      0.839000000000     0.089000000000     0.556500000000     0          
C3       C      0.817250000000     0.099700000000     0.567250000000     0          
H1       H      0.809900000000     0.114000000000     0.559900000000     0          
O1       O      0.878450000000     0.341700000000     0.526100000000     0          
C1       C      0.898400000000     0.351600000000     0.534350000000     0          
C2       C      0.911000000000     0.339000000000     0.556500000000     0          
C3       C      0.900300000000     0.317250000000     0.567250000000     0          
H1       H      0.886000000000     0.309900000000     0.559900000000     0          
Cu1      Cu     0.500000000000     0.142650000000     0.642650000000     0          
O1       O      0.973900000000     0.158300000000     0.621550000000     0          
C1       C      0.965650000000     0.148400000000     0.601600000000     0          
C2       C      0.943500000000     0.161000000000     0.589000000000     0          
C3       C      0.932750000000     0.182750000000     0.599700000000     0          
H1       H      0.940100000000     0.190100000000     0.614000000000     0          
Cu1      Cu     0.857350000000     0.000000000000     0.642650000000     0          
O1       O      0.841700000000     0.473900000000     0.621550000000     0          
C1       C      0.851600000000     0.465650000000     0.601600000000     0          
C2       C      0.839000000000     0.443500000000     0.589000000000     0          
C3       C      0.817250000000     0.432750000000     0.599700000000     0          
H1       H      0.809900000000     0.440100000000     0.614000000000     0          
Cu1      Cu     0.500000000000     0.357350000000     0.642650000000     0          
O1       O      0.526100000000     0.341700000000     0.621550000000     0          
C1       C      0.534350000000     0.351600000000     0.601600000000     0          
C2       C      0.556500000000     0.339000000000     0.589000000000     0          
C3       C      0.567250000000     0.317250000000     0.599700000000     0          
H1       H      0.559900000000     0.309900000000     0.614000000000     0          
Cu1      Cu     0.642650000000     0.000000000000     0.642650000000     0          
O1       O      0.658300000000     0.026100000000     0.621550000000     0          
C1       C      0.648400000000     0.034350000000     0.601600000000     0          
C2       C      0.661000000000     0.056500000000     0.589000000000     0          
C3       C      0.682750000000     0.067250000000     0.599700000000     0          
H1       H      0.690100000000     0.059900000000     0.614000000000     0          
Cu1      Cu     0.500000000000     0.357350000000     0.857350000000     0          
O1       O      0.973900000000     0.341700000000     0.878450000000     0          
C1       C      0.965650000000     0.351600000000     0.898400000000     0          
C2       C      0.943500000000     0.339000000000     0.911000000000     0          
C3       C      0.932750000000     0.317250000000     0.900300000000     0          
H1       H      0.940100000000     0.309900000000     0.886000000000     0          
Cu1      Cu     0.642650000000     0.000000000000     0.857350000000     0          
O1       O      0.658300000000     0.473900000000     0.878450000000     0          
C1       C      0.648400000000     0.465650000000     0.898400000000     0          
C2       C      0.661000000000     0.443500000000     0.911000000000     0          
C3       C      0.682750000000     0.432750000000     0.900300000000     0          
H1       H      0.690100000000     0.440100000000     0.886000000000     0          
Cu1      Cu     0.500000000000     0.142650000000     0.857350000000     0          
O1       O      0.526100000000     0.158300000000     0.878450000000     0          
C1       C      0.534350000000     0.148400000000     0.898400000000     0          
C2       C      0.556500000000     0.161000000000     0.911000000000     0          
C3       C      0.567250000000     0.182750000000     0.900300000000     0          
H1       H      0.559900000000     0.190100000000     0.886000000000     0          
Cu1      Cu     0.857350000000     0.000000000000     0.857350000000     0          
O1       O      0.841700000000     0.026100000000     0.878450000000     0          
C1       C      0.851600000000     0.034350000000     0.898400000000     0          
C2       C      0.839000000000     0.056500000000     0.911000000000     0          
C3       C      0.817250000000     0.067250000000     0.900300000000     0          
H1       H      0.809900000000     0.059900000000     0.886000000000     0          
O1       O      0.621550000000     0.473900000000     0.658300000000     0          
C1       C      0.601600000000     0.465650000000     0.648400000000     0          
C2       C      0.589000000000     0.443500000000     0.661000000000     0          
C3       C      0.599700000000     0.432750000000     0.682750000000     0          
H1       H      0.614000000000     0.440100000000     0.690100000000     0          
O1       O      0.621550000000     0.026100000000     0.841700000000     0          
C1       C      0.601600000000     0.034350000000     0.851600000000     0          
C2       C      0.589000000000     0.056500000000     0.839000000000     0          
C3       C      0.599700000000     0.067250000000     0.817250000000     0          
H1       H      0.614000000000     0.059900000000     0.809900000000     0          
O1       O      0.973900000000     0.121550000000     0.841700000000     0          
C1       C      0.965650000000     0.101600000000     0.851600000000     0          
C2       C      0.943500000000     0.089000000000     0.839000000000     0          
C3       C      0.932750000000     0.099700000000     0.817250000000     0          
H1       H      0.940100000000     0.114000000000     0.809900000000     0          
O1       O      0.878450000000     0.473900000000     0.841700000000     0          
C1       C      0.898400000000     0.465650000000     0.851600000000     0          
C2       C      0.911000000000     0.443500000000     0.839000000000     0          
C3       C      0.900300000000     0.432750000000     0.817250000000     0          
H1       H      0.886000000000     0.440100000000     0.809900000000     0          
O1       O      0.526100000000     0.378450000000     0.841700000000     0          
C1       C      0.534350000000     0.398400000000     0.851600000000     0          
C2       C      0.556500000000     0.411000000000     0.839000000000     0          
C3       C      0.567250000000     0.400300000000     0.817250000000     0          
H1       H      0.559900000000     0.386000000000     0.809900000000     0          
O1       O      0.878450000000     0.026100000000     0.658300000000     0          
C1       C      0.898400000000     0.034350000000     0.648400000000     0          
C2       C      0.911000000000     0.056500000000     0.661000000000     0          
C3       C      0.900300000000     0.067250000000     0.682750000000     0          
H1       H      0.886000000000     0.059900000000     0.690100000000     0          
O1       O      0.973900000000     0.378450000000     0.658300000000     0          
C1       C      0.965650000000     0.398400000000     0.648400000000     0          
C2       C      0.943500000000     0.411000000000     0.661000000000     0          
C3       C      0.932750000000     0.400300000000     0.682750000000     0          
H1       H      0.940100000000     0.386000000000     0.690100000000     0          
O1       O      0.526100000000     0.121550000000     0.658300000000     0          
C1       C      0.534350000000     0.101600000000     0.648400000000     0          
C2       C      0.556500000000     0.089000000000     0.661000000000     0          
C3       C      0.567250000000     0.099700000000     0.682750000000     0          
H1       H      0.559900000000     0.114000000000     0.690100000000     0          
O1       O      0.841700000000     0.378450000000     0.526100000000     0          
C1       C      0.851600000000     0.398400000000     0.534350000000     0          
C2       C      0.839000000000     0.411000000000     0.556500000000     0          
C3       C      0.817250000000     0.400300000000     0.567250000000     0          
H1       H      0.809900000000     0.386000000000     0.559900000000     0          
O1       O      0.621550000000     0.341700000000     0.526100000000     0          
C1       C      0.601600000000     0.351600000000     0.534350000000     0          
C2       C      0.589000000000     0.339000000000     0.556500000000     0          
C3       C      0.599700000000     0.317250000000     0.567250000000     0          
H1       H      0.614000000000     0.309900000000     0.559900000000     0          
O1       O      0.658300000000     0.121550000000     0.526100000000     0          
C1       C      0.648400000000     0.101600000000     0.534350000000     0          
C2       C      0.661000000000     0.089000000000     0.556500000000     0          
C3       C      0.682750000000     0.099700000000     0.567250000000     0          
H1       H      0.690100000000     0.114000000000     0.559900000000     0          
O1       O      0.878450000000     0.158300000000     0.526100000000     0          
C1       C      0.898400000000     0.148400000000     0.534350000000     0          
C2       C      0.911000000000     0.161000000000     0.556500000000     0          
C3       C      0.900300000000     0.182750000000     0.567250000000     0          
H1       H      0.886000000000     0.190100000000     0.559900000000     0          
O1       O      0.841700000000     0.121550000000     0.973900000000     0          
C1       C      0.851600000000     0.101600000000     0.965650000000     0          
C2       C      0.839000000000     0.089000000000     0.943500000000     0          
C3       C      0.817250000000     0.099700000000     0.932750000000     0          
H1       H      0.809900000000     0.114000000000     0.940100000000     0          
O1       O      0.878450000000     0.341700000000     0.973900000000     0          
C1       C      0.898400000000     0.351600000000     0.965650000000     0          
C2       C      0.911000000000     0.339000000000     0.943500000000     0          
C3       C      0.900300000000     0.317250000000     0.932750000000     0          
H1       H      0.886000000000     0.309900000000     0.940100000000     0          
O1       O      0.658300000000     0.378450000000     0.973900000000     0          
C1       C      0.648400000000     0.398400000000     0.965650000000     0          
C2       C      0.661000000000     0.411000000000     0.943500000000     0          
C3       C      0.682750000000     0.400300000000     0.932750000000     0          
H1       H      0.690100000000     0.386000000000     0.940100000000     0          
O1       O      0.621550000000     0.158300000000     0.973900000000     0          
C1       C      0.601600000000     0.148400000000     0.965650000000     0          
C2       C      0.589000000000     0.161000000000     0.943500000000     0          
C3       C      0.599700000000     0.182750000000     0.932750000000     0          
H1       H      0.614000000000     0.190100000000     0.940100000000     0          
O1       O      0.526100000000     0.341700000000     0.878450000000     0          
C1       C      0.534350000000     0.351600000000     0.898400000000     0          
C2       C      0.556500000000     0.339000000000     0.911000000000     0          
C3       C      0.567250000000     0.317250000000     0.900300000000     0          
H1       H      0.559900000000     0.309900000000     0.886000000000     0          
O1       O      0.658300000000     0.026100000000     0.878450000000     0          
C1       C      0.648400000000     0.034350000000     0.898400000000     0          
C2       C      0.661000000000     0.056500000000     0.911000000000     0          
C3       C      0.682750000000     0.067250000000     0.900300000000     0          
H1       H      0.690100000000     0.059900000000     0.886000000000     0          
O1       O      0.973900000000     0.158300000000     0.878450000000     0          
C1       C      0.965650000000     0.148400000000     0.898400000000     0          
C2       C      0.943500000000     0.161000000000     0.911000000000     0          
C3       C      0.932750000000     0.182750000000     0.900300000000     0          
H1       H      0.940100000000     0.190100000000     0.886000000000     0          
O1       O      0.841700000000     0.473900000000     0.878450000000     0          
C1       C      0.851600000000     0.465650000000     0.898400000000     0          
C2       C      0.839000000000     0.443500000000     0.911000000000     0          
C3       C      0.817250000000     0.432750000000     0.900300000000     0          
H1       H      0.809900000000     0.440100000000     0.886000000000     0          
O1       O      0.526100000000     0.158300000000     0.621550000000     0          
C1       C      0.534350000000     0.148400000000     0.601600000000     0          
C2       C      0.556500000000     0.161000000000     0.589000000000     0          
C3       C      0.567250000000     0.182750000000     0.599700000000     0          
H1       H      0.559900000000     0.190100000000     0.614000000000     0          
O1       O      0.841700000000     0.026100000000     0.621550000000     0          
C1       C      0.851600000000     0.034350000000     0.601600000000     0          
C2       C      0.839000000000     0.056500000000     0.589000000000     0          
C3       C      0.817250000000     0.067250000000     0.599700000000     0          
H1       H      0.809900000000     0.059900000000     0.614000000000     0          
O1       O      0.973900000000     0.341700000000     0.621550000000     0          
C1       C      0.965650000000     0.351600000000     0.601600000000     0          
C2       C      0.943500000000     0.339000000000     0.589000000000     0          
C3       C      0.932750000000     0.317250000000     0.599700000000     0          
H1       H      0.940100000000     0.309900000000     0.614000000000     0          
O1       O      0.658300000000     0.473900000000     0.621550000000     0          
C1       C      0.648400000000     0.465650000000     0.601600000000     0          
C2       C      0.661000000000     0.443500000000     0.589000000000     0          
C3       C      0.682750000000     0.432750000000     0.599700000000     0          
H1       H      0.690100000000     0.440100000000     0.614000000000     0          
O1       O      0.878450000000     0.026100000000     0.841700000000     0          
C1       C      0.898400000000     0.034350000000     0.851600000000     0          
C2       C      0.911000000000     0.056500000000     0.839000000000     0          
C3       C      0.900300000000     0.067250000000     0.817250000000     0          
H1       H      0.886000000000     0.059900000000     0.809900000000     0          
O1       O      0.878450000000     0.473900000000     0.658300000000     0          
C1       C      0.898400000000     0.465650000000     0.648400000000     0          
C2       C      0.911000000000     0.443500000000     0.661000000000     0          
C3       C      0.900300000000     0.432750000000     0.682750000000     0          
H1       H      0.886000000000     0.440100000000     0.690100000000     0          
O1       O      0.526100000000     0.378450000000     0.658300000000     0          
C1       C      0.534350000000     0.398400000000     0.648400000000     0          
C2       C      0.556500000000     0.411000000000     0.661000000000     0          
C3       C      0.567250000000     0.400300000000     0.682750000000     0          
H1       H      0.559900000000     0.386000000000     0.690100000000     0          
O1       O      0.621550000000     0.026100000000     0.658300000000     0          
C1       C      0.601600000000     0.034350000000     0.648400000000     0          
C2       C      0.589000000000     0.056500000000     0.661000000000     0          
C3       C      0.599700000000     0.067250000000     0.682750000000     0          
H1       H      0.614000000000     0.059900000000     0.690100000000     0          
O1       O      0.973900000000     0.121550000000     0.658300000000     0          
C1       C      0.965650000000     0.101600000000     0.648400000000     0          
C2       C      0.943500000000     0.089000000000     0.661000000000     0          
C3       C      0.932750000000     0.099700000000     0.682750000000     0          
H1       H      0.940100000000     0.114000000000     0.690100000000     0          
O1       O      0.621550000000     0.473900000000     0.841700000000     0          
C1       C      0.601600000000     0.465650000000     0.851600000000     0          
C2       C      0.589000000000     0.443500000000     0.839000000000     0          
C3       C      0.599700000000     0.432750000000     0.817250000000     0          
H1       H      0.614000000000     0.440100000000     0.809900000000     0          
O1       O      0.526100000000     0.121550000000     0.841700000000     0          
C1       C      0.534350000000     0.101600000000     0.851600000000     0          
C2       C      0.556500000000     0.089000000000     0.839000000000     0          
C3       C      0.567250000000     0.099700000000     0.817250000000     0          
H1       H      0.559900000000     0.114000000000     0.809900000000     0          
O1       O      0.973900000000     0.378450000000     0.841700000000     0          
C1       C      0.965650000000     0.398400000000     0.851600000000     0          
C2       C      0.943500000000     0.411000000000     0.839000000000     0          
C3       C      0.932750000000     0.400300000000     0.817250000000     0          
H1       H      0.940100000000     0.386000000000     0.809900000000     0          
Cu1      Cu     0.642650000000     0.392650000000     0.750000000000     0          
O1       O      0.658300000000     0.371550000000     0.723900000000     0          
C1       C      0.648400000000     0.351600000000     0.715650000000     0          
C2       C      0.661000000000     0.339000000000     0.693500000000     0          
C3       C      0.682750000000     0.349700000000     0.682750000000     0          
H1       H      0.690100000000     0.364000000000     0.690100000000     0          
Cu1      Cu     0.857350000000     0.392650000000     0.750000000000     0          
O1       O      0.878450000000     0.408300000000     0.723900000000     0          
C1       C      0.898400000000     0.398400000000     0.715650000000     0          
C2       C      0.911000000000     0.411000000000     0.693500000000     0          
Cu1      Cu     0.857350000000     0.107350000000     0.750000000000     0          
O1       O      0.841700000000     0.128450000000     0.723900000000     0          
C1       C      0.851600000000     0.148400000000     0.715650000000     0          
C2       C      0.839000000000     0.161000000000     0.693500000000     0          
C3       C      0.817250000000     0.150300000000     0.682750000000     0          
H1       H      0.809900000000     0.136000000000     0.690100000000     0          
Cu1      Cu     0.642650000000     0.107350000000     0.750000000000     0          
O1       O      0.621550000000     0.091700000000     0.723900000000     0          
C1       C      0.601600000000     0.101600000000     0.715650000000     0          
C2       C      0.589000000000     0.089000000000     0.693500000000     0          
O1       O      0.658300000000     0.128450000000     0.776100000000     0          
C1       C      0.648400000000     0.148400000000     0.784350000000     0          
C2       C      0.661000000000     0.161000000000     0.806500000000     0          
C3       C      0.682750000000     0.150300000000     0.817250000000     0          
H1       H      0.690100000000     0.136000000000     0.809900000000     0          
O1       O      0.621550000000     0.408300000000     0.776100000000     0          
C1       C      0.601600000000     0.398400000000     0.784350000000     0          
C2       C      0.589000000000     0.411000000000     0.806500000000     0          
O1       O      0.841700000000     0.371550000000     0.776100000000     0          
C1       C      0.851600000000     0.351600000000     0.784350000000     0          
C2       C      0.839000000000     0.339000000000     0.806500000000     0          
C3       C      0.817250000000     0.349700000000     0.817250000000     0          
H1       H      0.809900000000     0.364000000000     0.809900000000     0          
O1       O      0.878450000000     0.091700000000     0.776100000000     0          
C1       C      0.898400000000     0.101600000000     0.784350000000     0          
C2       C      0.911000000000     0.089000000000     0.806500000000     0          
Cu1      Cu     0.500000000000     0.392650000000     0.892650000000     0          
O1       O      0.973900000000     0.408300000000     0.871550000000     0          
C3       C      0.932750000000     0.432750000000     0.849700000000     0          
H1       H      0.940100000000     0.440100000000     0.864000000000     0          
Cu1      Cu     0.857350000000     0.250000000000     0.892650000000     0          
O1       O      0.841700000000     0.223900000000     0.871550000000     0          
C1       C      0.851600000000     0.215650000000     0.851600000000     0          
C2       C      0.839000000000     0.193500000000     0.839000000000     0          
C3       C      0.817250000000     0.182750000000     0.849700000000     0          
H1       H      0.809900000000     0.190100000000     0.864000000000     0          
Cu1      Cu     0.500000000000     0.107350000000     0.892650000000     0          
O1       O      0.526100000000     0.091700000000     0.871550000000     0          
C3       C      0.567250000000     0.067250000000     0.849700000000     0          
H1       H      0.559900000000     0.059900000000     0.864000000000     0          
Cu1      Cu     0.642650000000     0.250000000000     0.892650000000     0          
O1       O      0.658300000000     0.276100000000     0.871550000000     0          
C1       C      0.648400000000     0.284350000000     0.851600000000     0          
C2       C      0.661000000000     0.306500000000     0.839000000000     0          
C3       C      0.682750000000     0.317250000000     0.849700000000     0          
H1       H      0.690100000000     0.309900000000     0.864000000000     0          
Cu1      Cu     0.500000000000     0.107350000000     0.607350000000     0          
O1       O      0.973900000000     0.091700000000     0.628450000000     0          
C3       C      0.932750000000     0.067250000000     0.650300000000     0          
H1       H      0.940100000000     0.059900000000     0.636000000000     0          
Cu1      Cu     0.642650000000     0.250000000000     0.607350000000     0          
O1       O      0.658300000000     0.223900000000     0.628450000000     0          
C1       C      0.648400000000     0.215650000000     0.648400000000     0          
C2       C      0.661000000000     0.193500000000     0.661000000000     0          
C3       C      0.682750000000     0.182750000000     0.650300000000     0          
H1       H      0.690100000000     0.190100000000     0.636000000000     0          
Cu1      Cu     0.500000000000     0.392650000000     0.607350000000     0          
O1       O      0.526100000000     0.408300000000     0.628450000000     0          
C3       C      0.567250000000     0.432750000000     0.650300000000     0          
H1       H      0.559900000000     0.440100000000     0.636000000000     0          
Cu1      Cu     0.857350000000     0.250000000000     0.607350000000     0          
O1       O      0.841700000000     0.276100000000     0.628450000000     0          
C1       C      0.851600000000     0.284350000000     0.648400000000     0          
C2       C      0.839000000000     0.306500000000     0.661000000000     0          
C3       C      0.817250000000     0.317250000000     0.650300000000     0          
H1       H      0.809900000000     0.309900000000     0.636000000000     0          
O1       O      0.621550000000     0.223900000000     0.908300000000     0          
C1       C      0.601600000000     0.215650000000     0.898400000000     0          
C2       C      0.589000000000     0.193500000000     0.911000000000     0          
O1       O      0.621550000000     0.276100000000     0.591700000000     0          
C1       C      0.601600000000     0.284350000000     0.601600000000     0          
C2       C      0.589000000000     0.306500000000     0.589000000000     0          
O1       O      0.973900000000     0.371550000000     0.591700000000     0          
C3       C      0.932750000000     0.349700000000     0.567250000000     0          
H1       H      0.940100000000     0.364000000000     0.559900000000     0          
O1       O      0.878450000000     0.223900000000     0.591700000000     0          
C1       C      0.898400000000     0.215650000000     0.601600000000     0          
C2       C      0.911000000000     0.193500000000     0.589000000000     0          
O1       O      0.526100000000     0.128450000000     0.591700000000     0          
C3       C      0.567250000000     0.150300000000     0.567250000000     0          
H1       H      0.559900000000     0.136000000000     0.559900000000     0          
O1       O      0.878450000000     0.276100000000     0.908300000000     0          
C1       C      0.898400000000     0.284350000000     0.898400000000     0          
C2       C      0.911000000000     0.306500000000     0.911000000000     0          
O1       O      0.973900000000     0.128450000000     0.908300000000     0          
C3       C      0.932750000000     0.150300000000     0.932750000000     0          
H1       H      0.940100000000     0.136000000000     0.940100000000     0          
O1       O      0.526100000000     0.371550000000     0.908300000000     0          
C3       C      0.567250000000     0.349700000000     0.932750000000     0          
H1       H      0.559900000000     0.364000000000     0.940100000000     0          
O1       O      0.841700000000     0.128450000000     0.776100000000     0          
C1       C      0.851600000000     0.148400000000     0.784350000000     0          
C2       C      0.839000000000     0.161000000000     0.806500000000     0          
C3       C      0.817250000000     0.150300000000     0.817250000000     0          
H1       H      0.809900000000     0.136000000000     0.809900000000     0          
O1       O      0.621550000000     0.091700000000     0.776100000000     0          
C1       C      0.601600000000     0.101600000000     0.784350000000     0          
C2       C      0.589000000000     0.089000000000     0.806500000000     0          
O1       O      0.658300000000     0.371550000000     0.776100000000     0          
C1       C      0.648400000000     0.351600000000     0.784350000000     0          
C2       C      0.661000000000     0.339000000000     0.806500000000     0          
C3       C      0.682750000000     0.349700000000     0.817250000000     0          
H1       H      0.690100000000     0.364000000000     0.809900000000     0          
O1       O      0.878450000000     0.408300000000     0.776100000000     0          
C1       C      0.898400000000     0.398400000000     0.784350000000     0          
C2       C      0.911000000000     0.411000000000     0.806500000000     0          
O1       O      0.841700000000     0.371550000000     0.723900000000     0          
C1       C      0.851600000000     0.351600000000     0.715650000000     0          
C2       C      0.839000000000     0.339000000000     0.693500000000     0          
C3       C      0.817250000000     0.349700000000     0.682750000000     0          
H1       H      0.809900000000     0.364000000000     0.690100000000     0          
O1       O      0.878450000000     0.091700000000     0.723900000000     0          
C1       C      0.898400000000     0.101600000000     0.715650000000     0          
C2       C      0.911000000000     0.089000000000     0.693500000000     0          
O1       O      0.658300000000     0.128450000000     0.723900000000     0          
C1       C      0.648400000000     0.148400000000     0.715650000000     0          
C2       C      0.661000000000     0.161000000000     0.693500000000     0          
C3       C      0.682750000000     0.150300000000     0.682750000000     0          
H1       H      0.690100000000     0.136000000000     0.690100000000     0          
O1       O      0.621550000000     0.408300000000     0.723900000000     0          
C1       C      0.601600000000     0.398400000000     0.715650000000     0          
C2       C      0.589000000000     0.411000000000     0.693500000000     0          
O1       O      0.526100000000     0.091700000000     0.628450000000     0          
C3       C      0.567250000000     0.067250000000     0.650300000000     0          
H1       H      0.559900000000     0.059900000000     0.636000000000     0          
O1       O      0.658300000000     0.276100000000     0.628450000000     0          
C1       C      0.648400000000     0.284350000000     0.648400000000     0          
C2       C      0.661000000000     0.306500000000     0.661000000000     0          
C3       C      0.682750000000     0.317250000000     0.650300000000     0          
H1       H      0.690100000000     0.309900000000     0.636000000000     0          
O1       O      0.973900000000     0.408300000000     0.628450000000     0          
C3       C      0.932750000000     0.432750000000     0.650300000000     0          
H1       H      0.940100000000     0.440100000000     0.636000000000     0          
O1       O      0.841700000000     0.223900000000     0.628450000000     0          
C1       C      0.851600000000     0.215650000000     0.648400000000     0          
C2       C      0.839000000000     0.193500000000     0.661000000000     0          
C3       C      0.817250000000     0.182750000000     0.650300000000     0          
H1       H      0.809900000000     0.190100000000     0.636000000000     0          
O1       O      0.526100000000     0.408300000000     0.871550000000     0          
C3       C      0.567250000000     0.432750000000     0.849700000000     0          
H1       H      0.559900000000     0.440100000000     0.864000000000     0          
O1       O      0.841700000000     0.276100000000     0.871550000000     0          
C1       C      0.851600000000     0.284350000000     0.851600000000     0          
C2       C      0.839000000000     0.306500000000     0.839000000000     0          
C3       C      0.817250000000     0.317250000000     0.849700000000     0          
H1       H      0.809900000000     0.309900000000     0.864000000000     0          
O1       O      0.973900000000     0.091700000000     0.871550000000     0          
C3       C      0.932750000000     0.067250000000     0.849700000000     0          
H1       H      0.940100000000     0.059900000000     0.864000000000     0          
O1       O      0.658300000000     0.223900000000     0.871550000000     0          
C1       C      0.648400000000     0.215650000000     0.851600000000     0          
C2       C      0.661000000000     0.193500000000     0.839000000000     0          
C3       C      0.682750000000     0.182750000000     0.849700000000     0          
H1       H      0.690100000000     0.190100000000     0.864000000000     0          
O1       O      0.878450000000     0.276100000000     0.591700000000     0          
C1       C      0.898400000000     0.284350000000     0.601600000000     0          
C2       C      0.911000000000     0.306500000000     0.589000000000     0          
O1       O      0.878450000000     0.223900000000     0.908300000000     0          
C1       C      0.898400000000     0.215650000000     0.898400000000     0          
C2       C      0.911000000000     0.193500000000     0.911000000000     0          
O1       O      0.526100000000     0.128450000000     0.908300000000     0          
C3       C      0.567250000000     0.150300000000     0.932750000000     0          
H1       H      0.559900000000     0.136000000000     0.940100000000     0          
O1       O      0.621550000000     0.276100000000     0.908300000000     0          
C1       C      0.601600000000     0.284350000000     0.898400000000     0          
C2       C      0.589000000000     0.306500000000     0.911000000000     0          
O1       O      0.973900000000     0.371550000000     0.908300000000     0          
C3       C      0.932750000000     0.349700000000     0.932750000000     0          
H1       H      0.940100000000     0.364000000000     0.940100000000     0          
O1       O      0.621550000000     0.223900000000     0.591700000000     0          
C1       C      0.601600000000     0.215650000000     0.601600000000     0          
C2       C      0.589000000000     0.193500000000     0.589000000000     0          
O1       O      0.526100000000     0.371550000000     0.591700000000     0          
C3       C      0.567250000000     0.349700000000     0.567250000000     0          
H1       H      0.559900000000     0.364000000000     0.559900000000     0          
O1       O      0.973900000000     0.128450000000     0.591700000000     0          
C3       C      0.932750000000     0.150300000000     0.567250000000     0          
H1       H      0.940100000000     0.136000000000     0.559900000000     0          
Cu1      Cu     0.892650000000     0.142650000000     0.750000000000     0          
O1       O      0.908300000000     0.121550000000     0.723900000000     0          
Cu1      Cu     0.607350000000     0.142650000000     0.750000000000     0          
O1       O      0.628450000000     0.158300000000     0.723900000000     0          
C3       C      0.650300000000     0.182750000000     0.682750000000     0          
H1       H      0.636000000000     0.190100000000     0.690100000000     0          
Cu1      Cu     0.607350000000     0.357350000000     0.750000000000     0          
O1       O      0.591700000000     0.378450000000     0.723900000000     0          
Cu1      Cu     0.892650000000     0.357350000000     0.750000000000     0          
O1       O      0.871550000000     0.341700000000     0.723900000000     0          
C3       C      0.849700000000     0.317250000000     0.682750000000     0          
H1       H      0.864000000000     0.309900000000     0.690100000000     0          
O1       O      0.908300000000     0.378450000000     0.776100000000     0          
O1       O      0.871550000000     0.158300000000     0.776100000000     0          
C3       C      0.849700000000     0.182750000000     0.817250000000     0          
H1       H      0.864000000000     0.190100000000     0.809900000000     0          
O1       O      0.591700000000     0.121550000000     0.776100000000     0          
O1       O      0.628450000000     0.341700000000     0.776100000000     0          
C3       C      0.650300000000     0.317250000000     0.817250000000     0          
H1       H      0.636000000000     0.309900000000     0.809900000000     0          
Cu1      Cu     0.750000000000     0.142650000000     0.892650000000     0          
O1       O      0.723900000000     0.158300000000     0.871550000000     0          
C1       C      0.715650000000     0.148400000000     0.851600000000     0          
C2       C      0.693500000000     0.161000000000     0.839000000000     0          
Cu1      Cu     0.607350000000     0.000000000000     0.892650000000     0          
O1       O      0.591700000000     0.473900000000     0.871550000000     0          
Cu1      Cu     0.750000000000     0.357350000000     0.892650000000     0          
O1       O      0.776100000000     0.341700000000     0.871550000000     0          
C1       C      0.784350000000     0.351600000000     0.851600000000     0          
C2       C      0.806500000000     0.339000000000     0.839000000000     0          
Cu1      Cu     0.892650000000     0.000000000000     0.892650000000     0          
O1       O      0.908300000000     0.026100000000     0.871550000000     0          
Cu1      Cu     0.750000000000     0.357350000000     0.607350000000     0          
O1       O      0.723900000000     0.341700000000     0.628450000000     0          
C1       C      0.715650000000     0.351600000000     0.648400000000     0          
C2       C      0.693500000000     0.339000000000     0.661000000000     0          
Cu1      Cu     0.892650000000     0.000000000000     0.607350000000     0          
O1       O      0.908300000000     0.473900000000     0.628450000000     0          
Cu1      Cu     0.750000000000     0.142650000000     0.607350000000     0          
O1       O      0.776100000000     0.158300000000     0.628450000000     0          
C1       C      0.784350000000     0.148400000000     0.648400000000     0          
C2       C      0.806500000000     0.161000000000     0.661000000000     0          
Cu1      Cu     0.607350000000     0.000000000000     0.607350000000     0          
O1       O      0.591700000000     0.026100000000     0.628450000000     0          
O1       O      0.871550000000     0.473900000000     0.908300000000     0          
C3       C      0.849700000000     0.432750000000     0.932750000000     0          
H1       H      0.864000000000     0.440100000000     0.940100000000     0          
O1       O      0.871550000000     0.026100000000     0.591700000000     0          
C3       C      0.849700000000     0.067250000000     0.567250000000     0          
H1       H      0.864000000000     0.059900000000     0.559900000000     0          
O1       O      0.723900000000     0.121550000000     0.591700000000     0          
C1       C      0.715650000000     0.101600000000     0.601600000000     0          
C2       C      0.693500000000     0.089000000000     0.589000000000     0          
O1       O      0.628450000000     0.473900000000     0.591700000000     0          
C3       C      0.650300000000     0.432750000000     0.567250000000     0          
H1       H      0.636000000000     0.440100000000     0.559900000000     0          
O1       O      0.776100000000     0.378450000000     0.591700000000     0          
C1       C      0.784350000000     0.398400000000     0.601600000000     0          
C2       C      0.806500000000     0.411000000000     0.589000000000     0          
O1       O      0.628450000000     0.026100000000     0.908300000000     0          
C3       C      0.650300000000     0.067250000000     0.932750000000     0          
H1       H      0.636000000000     0.059900000000     0.940100000000     0          
O1       O      0.723900000000     0.378450000000     0.908300000000     0          
C1       C      0.715650000000     0.398400000000     0.898400000000     0          
C2       C      0.693500000000     0.411000000000     0.911000000000     0          
O1       O      0.776100000000     0.121550000000     0.908300000000     0          
C1       C      0.784350000000     0.101600000000     0.898400000000     0          
C2       C      0.806500000000     0.089000000000     0.911000000000     0          
O1       O      0.591700000000     0.378450000000     0.776100000000     0          
O1       O      0.871550000000     0.341700000000     0.776100000000     0          
C3       C      0.849700000000     0.317250000000     0.817250000000     0          
H1       H      0.864000000000     0.309900000000     0.809900000000     0          
O1       O      0.908300000000     0.121550000000     0.776100000000     0          
O1       O      0.628450000000     0.158300000000     0.776100000000     0          
C3       C      0.650300000000     0.182750000000     0.817250000000     0          
H1       H      0.636000000000     0.190100000000     0.809900000000     0          
O1       O      0.591700000000     0.121550000000     0.723900000000     0          
O1       O      0.628450000000     0.341700000000     0.723900000000     0          
C3       C      0.650300000000     0.317250000000     0.682750000000     0          
H1       H      0.636000000000     0.309900000000     0.690100000000     0          
O1       O      0.908300000000     0.378450000000     0.723900000000     0          
O1       O      0.871550000000     0.158300000000     0.723900000000     0          
C3       C      0.849700000000     0.182750000000     0.682750000000     0          
H1       H      0.864000000000     0.190100000000     0.690100000000     0          
O1       O      0.776100000000     0.341700000000     0.628450000000     0          
C1       C      0.784350000000     0.351600000000     0.648400000000     0          
C2       C      0.806500000000     0.339000000000     0.661000000000     0          
O1       O      0.908300000000     0.026100000000     0.628450000000     0          
O1       O      0.723900000000     0.158300000000     0.628450000000     0          
C1       C      0.715650000000     0.148400000000     0.648400000000     0          
C2       C      0.693500000000     0.161000000000     0.661000000000     0          
O1       O      0.591700000000     0.473900000000     0.628450000000     0          
O1       O      0.776100000000     0.158300000000     0.871550000000     0          
C1       C      0.784350000000     0.148400000000     0.851600000000     0          
C2       C      0.806500000000     0.161000000000     0.839000000000     0          
O1       O      0.591700000000     0.026100000000     0.871550000000     0          
O1       O      0.723900000000     0.341700000000     0.871550000000     0          
C1       C      0.715650000000     0.351600000000     0.851600000000     0          
C2       C      0.693500000000     0.339000000000     0.839000000000     0          
O1       O      0.908300000000     0.473900000000     0.871550000000     0          
O1       O      0.628450000000     0.026100000000     0.591700000000     0          
C3       C      0.650300000000     0.067250000000     0.567250000000     0          
H1       H      0.636000000000     0.059900000000     0.559900000000     0          
O1       O      0.628450000000     0.473900000000     0.908300000000     0          
C3       C      0.650300000000     0.432750000000     0.932750000000     0          
H1       H      0.636000000000     0.440100000000     0.940100000000     0          
O1       O      0.776100000000     0.378450000000     0.908300000000     0          
C1       C      0.784350000000     0.398400000000     0.898400000000     0          
C2       C      0.806500000000     0.411000000000     0.911000000000     0          
O1       O      0.871550000000     0.026100000000     0.908300000000     0          
C3       C      0.849700000000     0.067250000000     0.932750000000     0          
H1       H      0.864000000000     0.059900000000     0.940100000000     0          
O1       O      0.723900000000     0.121550000000     0.908300000000     0          
C1       C      0.715650000000     0.101600000000     0.898400000000     0          
C2       C      0.693500000000     0.089000000000     0.911000000000     0          
O1       O      0.871550000000     0.473900000000     0.591700000000     0          
C3       C      0.849700000000     0.432750000000     0.567250000000     0          
H1       H      0.864000000000     0.440100000000     0.559900000000     0          
O1       O      0.776100000000     0.121550000000     0.591700000000     0          
C1       C      0.784350000000     0.101600000000     0.601600000000     0          
C2       C      0.806500000000     0.089000000000     0.589000000000     0          
O1       O      0.723900000000     0.378450000000     0.591700000000     0          
C1       C      0.715650000000     0.398400000000     0.601600000000     0          
C2       C      0.693500000000     0.411000000000     0.589000000000     0          
Cu1      Cu     0.892650000000     0.392650000000     0.500000000000     0          
O1       O      0.908300000000     0.371550000000     0.973900000000     0          
Cu1      Cu     0.607350000000     0.392650000000     0.500000000000     0          
O1       O      0.628450000000     0.408300000000     0.973900000000     0          
Cu1      Cu     0.607350000000     0.107350000000     0.500000000000     0          
O1       O      0.591700000000     0.128450000000     0.973900000000     0          
Cu1      Cu     0.892650000000     0.107350000000     0.500000000000     0          
O1       O      0.871550000000     0.091700000000     0.973900000000     0          
O1       O      0.908300000000     0.128450000000     0.526100000000     0          
O1       O      0.871550000000     0.408300000000     0.526100000000     0          
O1       O      0.591700000000     0.371550000000     0.526100000000     0          
O1       O      0.628450000000     0.091700000000     0.526100000000     0          
Cu1      Cu     0.750000000000     0.392650000000     0.642650000000     0          
O1       O      0.723900000000     0.408300000000     0.621550000000     0          
Cu1      Cu     0.607350000000     0.250000000000     0.642650000000     0          
O1       O      0.591700000000     0.223900000000     0.621550000000     0          
Cu1      Cu     0.750000000000     0.107350000000     0.642650000000     0          
O1       O      0.776100000000     0.091700000000     0.621550000000     0          
Cu1      Cu     0.892650000000     0.250000000000     0.642650000000     0          
O1       O      0.908300000000     0.276100000000     0.621550000000     0          
Cu1      Cu     0.750000000000     0.107350000000     0.857350000000     0          
O1       O      0.723900000000     0.091700000000     0.878450000000     0          
Cu1      Cu     0.892650000000     0.250000000000     0.857350000000     0          
O1       O      0.908300000000     0.223900000000     0.878450000000     0          
Cu1      Cu     0.750000000000     0.392650000000     0.857350000000     0          
O1       O      0.776100000000     0.408300000000     0.878450000000     0          
Cu1      Cu     0.607350000000     0.250000000000     0.857350000000     0          
O1       O      0.591700000000     0.276100000000     0.878450000000     0          
O1       O      0.871550000000     0.223900000000     0.658300000000     0          
O1       O      0.871550000000     0.276100000000     0.841700000000     0          
O1       O      0.723900000000     0.371550000000     0.841700000000     0          
O1       O      0.628450000000     0.223900000000     0.841700000000     0          
O1       O      0.776100000000     0.128450000000     0.841700000000     0          
O1       O      0.628450000000     0.276100000000     0.658300000000     0          
O1       O      0.723900000000     0.128450000000     0.658300000000     0          
O1       O      0.776100000000     0.371550000000     0.658300000000     0          
O1       O      0.591700000000     0.128450000000     0.526100000000     0          
O1       O      0.871550000000     0.091700000000     0.526100000000     0          
O1       O      0.908300000000     0.371550000000     0.526100000000     0          
O1       O      0.628450000000     0.408300000000     0.526100000000     0          
O1       O      0.591700000000     0.371550000000     0.973900000000     0          
O1       O      0.628450000000     0.091700000000     0.973900000000     0          
O1       O      0.908300000000     0.128450000000     0.973900000000     0          
O1       O      0.871550000000     0.408300000000     0.973900000000     0          
O1       O      0.776100000000     0.091700000000     0.878450000000     0          
O1       O      0.908300000000     0.276100000000     0.878450000000     0          
O1       O      0.723900000000     0.408300000000     0.878450000000     0          
O1       O      0.591700000000     0.223900000000     0.878450000000     0          
O1       O      0.776100000000     0.408300000000     0.621550000000     0          
O1       O      0.591700000000     0.276100000000     0.621550000000     0          
O1       O      0.723900000000     0.091700000000     0.621550000000     0          
O1       O      0.908300000000     0.223900000000     0.621550000000     0          
O1       O      0.628450000000     0.276100000000     0.841700000000     0          
O1       O      0.628450000000     0.223900000000     0.658300000000     0          
O1       O      0.776100000000     0.128450000000     0.658300000000     0          
O1       O      0.871550000000     0.276100000000     0.658300000000     0          
O1       O      0.723900000000     0.371550000000     0.658300000000     0          
O1       O      0.871550000000     0.223900000000     0.841700000000     0          
O1       O      0.776100000000     0.371550000000     0.841700000000     0          
O1       O      0.723900000000     0.128450000000     0.841700000000     0          
Cu1      Cu     0.642650000000     0.642650000000     0.000000000000     0          
O1       O      0.658300000000     0.621550000000     0.473900000000     0          
C1       C      0.648400000000     0.601600000000     0.465650000000     0          
C2       C      0.661000000000     0.589000000000     0.443500000000     0          
C3       C      0.682750000000     0.599700000000     0.432750000000     0          
H1       H      0.690100000000     0.614000000000     0.440100000000     0          
Cu1      Cu     0.857350000000     0.642650000000     0.000000000000     0          
O1       O      0.878450000000     0.658300000000     0.473900000000     0          
C1       C      0.898400000000     0.648400000000     0.465650000000     0          
C2       C      0.911000000000     0.661000000000     0.443500000000     0          
C3       C      0.900300000000     0.682750000000     0.432750000000     0          
H1       H      0.886000000000     0.690100000000     0.440100000000     0          
Cu1      Cu     0.857350000000     0.857350000000     0.000000000000     0          
O1       O      0.841700000000     0.878450000000     0.473900000000     0          
C1       C      0.851600000000     0.898400000000     0.465650000000     0          
C2       C      0.839000000000     0.911000000000     0.443500000000     0          
C3       C      0.817250000000     0.900300000000     0.432750000000     0          
H1       H      0.809900000000     0.886000000000     0.440100000000     0          
Cu1      Cu     0.642650000000     0.857350000000     0.000000000000     0          
O1       O      0.621550000000     0.841700000000     0.473900000000     0          
C1       C      0.601600000000     0.851600000000     0.465650000000     0          
C2       C      0.589000000000     0.839000000000     0.443500000000     0          
C3       C      0.599700000000     0.817250000000     0.432750000000     0          
H1       H      0.614000000000     0.809900000000     0.440100000000     0          
O1       O      0.658300000000     0.878450000000     0.026100000000     0          
C1       C      0.648400000000     0.898400000000     0.034350000000     0          
C2       C      0.661000000000     0.911000000000     0.056500000000     0          
C3       C      0.682750000000     0.900300000000     0.067250000000     0          
H1       H      0.690100000000     0.886000000000     0.059900000000     0          
O1       O      0.621550000000     0.658300000000     0.026100000000     0          
C1       C      0.601600000000     0.648400000000     0.034350000000     0          
C2       C      0.589000000000     0.661000000000     0.056500000000     0          
C3       C      0.599700000000     0.682750000000     0.067250000000     0          
H1       H      0.614000000000     0.690100000000     0.059900000000     0          
O1       O      0.841700000000     0.621550000000     0.026100000000     0          
C1       C      0.851600000000     0.601600000000     0.034350000000     0          
C2       C      0.839000000000     0.589000000000     0.056500000000     0          
C3       C      0.817250000000     0.599700000000     0.067250000000     0          
H1       H      0.809900000000     0.614000000000     0.059900000000     0          
O1       O      0.878450000000     0.841700000000     0.026100000000     0          
C1       C      0.898400000000     0.851600000000     0.034350000000     0          
C2       C      0.911000000000     0.839000000000     0.056500000000     0          
C3       C      0.900300000000     0.817250000000     0.067250000000     0          
H1       H      0.886000000000     0.809900000000     0.059900000000     0          
Cu1      Cu     0.500000000000     0.642650000000     0.142650000000     0          
O1       O      0.973900000000     0.658300000000     0.121550000000     0          
C1       C      0.965650000000     0.648400000000     0.101600000000     0          
C2       C      0.943500000000     0.661000000000     0.089000000000     0          
C3       C      0.932750000000     0.682750000000     0.099700000000     0          
H1       H      0.940100000000     0.690100000000     0.114000000000     0          
Cu1      Cu     0.857350000000     0.500000000000     0.142650000000     0          
O1       O      0.841700000000     0.973900000000     0.121550000000     0          
C1       C      0.851600000000     0.965650000000     0.101600000000     0          
C2       C      0.839000000000     0.943500000000     0.089000000000     0          
C3       C      0.817250000000     0.932750000000     0.099700000000     0          
H1       H      0.809900000000     0.940100000000     0.114000000000     0          
Cu1      Cu     0.500000000000     0.857350000000     0.142650000000     0          
O1       O      0.526100000000     0.841700000000     0.121550000000     0          
C1       C      0.534350000000     0.851600000000     0.101600000000     0          
C2       C      0.556500000000     0.839000000000     0.089000000000     0          
C3       C      0.567250000000     0.817250000000     0.099700000000     0          
H1       H      0.559900000000     0.809900000000     0.114000000000     0          
Cu1      Cu     0.642650000000     0.500000000000     0.142650000000     0          
O1       O      0.658300000000     0.526100000000     0.121550000000     0          
C1       C      0.648400000000     0.534350000000     0.101600000000     0          
C2       C      0.661000000000     0.556500000000     0.089000000000     0          
C3       C      0.682750000000     0.567250000000     0.099700000000     0          
H1       H      0.690100000000     0.559900000000     0.114000000000     0          
Cu1      Cu     0.500000000000     0.857350000000     0.357350000000     0          
O1       O      0.973900000000     0.841700000000     0.378450000000     0          
C1       C      0.965650000000     0.851600000000     0.398400000000     0          
C2       C      0.943500000000     0.839000000000     0.411000000000     0          
C3       C      0.932750000000     0.817250000000     0.400300000000     0          
H1       H      0.940100000000     0.809900000000     0.386000000000     0          
Cu1      Cu     0.642650000000     0.500000000000     0.357350000000     0          
O1       O      0.658300000000     0.973900000000     0.378450000000     0          
C1       C      0.648400000000     0.965650000000     0.398400000000     0          
C2       C      0.661000000000     0.943500000000     0.411000000000     0          
C3       C      0.682750000000     0.932750000000     0.400300000000     0          
H1       H      0.690100000000     0.940100000000     0.386000000000     0          
Cu1      Cu     0.500000000000     0.642650000000     0.357350000000     0          
O1       O      0.526100000000     0.658300000000     0.378450000000     0          
C1       C      0.534350000000     0.648400000000     0.398400000000     0          
C2       C      0.556500000000     0.661000000000     0.411000000000     0          
C3       C      0.567250000000     0.682750000000     0.400300000000     0          
H1       H      0.559900000000     0.690100000000     0.386000000000     0          
Cu1      Cu     0.857350000000     0.500000000000     0.357350000000     0          
O1       O      0.841700000000     0.526100000000     0.378450000000     0          
C1       C      0.851600000000     0.534350000000     0.398400000000     0          
C2       C      0.839000000000     0.556500000000     0.411000000000     0          
C3       C      0.817250000000     0.567250000000     0.400300000000     0          
H1       H      0.809900000000     0.559900000000     0.386000000000     0          
O1       O      0.621550000000     0.973900000000     0.158300000000     0          
C1       C      0.601600000000     0.965650000000     0.148400000000     0          
C2       C      0.589000000000     0.943500000000     0.161000000000     0          
C3       C      0.599700000000     0.932750000000     0.182750000000     0          
H1       H      0.614000000000     0.940100000000     0.190100000000     0          
O1       O      0.621550000000     0.526100000000     0.341700000000     0          
C1       C      0.601600000000     0.534350000000     0.351600000000     0          
C2       C      0.589000000000     0.556500000000     0.339000000000     0          
C3       C      0.599700000000     0.567250000000     0.317250000000     0          
H1       H      0.614000000000     0.559900000000     0.309900000000     0          
O1       O      0.973900000000     0.621550000000     0.341700000000     0          
C1       C      0.965650000000     0.601600000000     0.351600000000     0          
C2       C      0.943500000000     0.589000000000     0.339000000000     0          
C3       C      0.932750000000     0.599700000000     0.317250000000     0          
H1       H      0.940100000000     0.614000000000     0.309900000000     0          
O1       O      0.878450000000     0.973900000000     0.341700000000     0          
C1       C      0.898400000000     0.965650000000     0.351600000000     0          
C2       C      0.911000000000     0.943500000000     0.339000000000     0          
C3       C      0.900300000000     0.932750000000     0.317250000000     0          
H1       H      0.886000000000     0.940100000000     0.309900000000     0          
O1       O      0.526100000000     0.878450000000     0.341700000000     0          
C1       C      0.534350000000     0.898400000000     0.351600000000     0          
C2       C      0.556500000000     0.911000000000     0.339000000000     0          
C3       C      0.567250000000     0.900300000000     0.317250000000     0          
H1       H      0.559900000000     0.886000000000     0.309900000000     0          
O1       O      0.878450000000     0.526100000000     0.158300000000     0          
C1       C      0.898400000000     0.534350000000     0.148400000000     0          
C2       C      0.911000000000     0.556500000000     0.161000000000     0          
C3       C      0.900300000000     0.567250000000     0.182750000000     0          
H1       H      0.886000000000     0.559900000000     0.190100000000     0          
O1       O      0.973900000000     0.878450000000     0.158300000000     0          
C1       C      0.965650000000     0.898400000000     0.148400000000     0          
C2       C      0.943500000000     0.911000000000     0.161000000000     0          
C3       C      0.932750000000     0.900300000000     0.182750000000     0          
H1       H      0.940100000000     0.886000000000     0.190100000000     0          
O1       O      0.526100000000     0.621550000000     0.158300000000     0          
C1       C      0.534350000000     0.601600000000     0.148400000000     0          
C2       C      0.556500000000     0.589000000000     0.161000000000     0          
C3       C      0.567250000000     0.599700000000     0.182750000000     0          
H1       H      0.559900000000     0.614000000000     0.190100000000     0          
O1       O      0.841700000000     0.878450000000     0.026100000000     0          
C1       C      0.851600000000     0.898400000000     0.034350000000     0          
C2       C      0.839000000000     0.911000000000     0.056500000000     0          
C3       C      0.817250000000     0.900300000000     0.067250000000     0          
H1       H      0.809900000000     0.886000000000     0.059900000000     0          
O1       O      0.621550000000     0.841700000000     0.026100000000     0          
C1       C      0.601600000000     0.851600000000     0.034350000000     0          
C2       C      0.589000000000     0.839000000000     0.056500000000     0          
C3       C      0.599700000000     0.817250000000     0.067250000000     0          
H1       H      0.614000000000     0.809900000000     0.059900000000     0          
O1       O      0.658300000000     0.621550000000     0.026100000000     0          
C1       C      0.648400000000     0.601600000000     0.034350000000     0          
C2       C      0.661000000000     0.589000000000     0.056500000000     0          
C3       C      0.682750000000     0.599700000000     0.067250000000     0          
H1       H      0.690100000000     0.614000000000     0.059900000000     0          
O1       O      0.878450000000     0.658300000000     0.026100000000     0          
C1       C      0.898400000000     0.648400000000     0.034350000000     0          
C2       C      0.911000000000     0.661000000000     0.056500000000     0          
C3       C      0.900300000000     0.682750000000     0.067250000000     0          
H1       H      0.886000000000     0.690100000000     0.059900000000     0          
O1       O      0.841700000000     0.621550000000     0.473900000000     0          
C1       C      0.851600000000     0.601600000000     0.465650000000     0          
C2       C      0.839000000000     0.589000000000     0.443500000000     0          
C3       C      0.817250000000     0.599700000000     0.432750000000     0          
H1       H      0.809900000000     0.614000000000     0.440100000000     0          
O1       O      0.878450000000     0.841700000000     0.473900000000     0          
C1       C      0.898400000000     0.851600000000     0.465650000000     0          
C2       C      0.911000000000     0.839000000000     0.443500000000     0          
C3       C      0.900300000000     0.817250000000     0.432750000000     0          
H1       H      0.886000000000     0.809900000000     0.440100000000     0          
O1       O      0.658300000000     0.878450000000     0.473900000000     0          
C1       C      0.648400000000     0.898400000000     0.465650000000     0          
C2       C      0.661000000000     0.911000000000     0.443500000000     0          
C3       C      0.682750000000     0.900300000000     0.432750000000     0          
H1       H      0.690100000000     0.886000000000     0.440100000000     0          
O1       O      0.621550000000     0.658300000000     0.473900000000     0          
C1       C      0.601600000000     0.648400000000     0.465650000000     0          
C2       C      0.589000000000     0.661000000000     0.443500000000     0          
C3       C      0.599700000000     0.682750000000     0.432750000000     0          
H1       H      0.614000000000     0.690100000000     0.440100000000     0          
O1       O      0.526100000000     0.841700000000     0.378450000000     0          
C1       C      0.534350000000     0.851600000000     0.398400000000     0          
C2       C      0.556500000000     0.839000000000     0.411000000000     0          
C3       C      0.567250000000     0.817250000000     0.400300000000     0          
H1       H      0.559900000000     0.809900000000     0.386000000000     0          
O1       O      0.658300000000     0.526100000000     0.378450000000     0          
C1       C      0.648400000000     0.534350000000     0.398400000000     0          
C2       C      0.661000000000     0.556500000000     0.411000000000     0          
C3       C      0.682750000000     0.567250000000     0.400300000000     0          
H1       H      0.690100000000     0.559900000000     0.386000000000     0          
O1       O      0.973900000000     0.658300000000     0.378450000000     0          
C1       C      0.965650000000     0.648400000000     0.398400000000     0          
C2       C      0.943500000000     0.661000000000     0.411000000000     0          
C3       C      0.932750000000     0.682750000000     0.400300000000     0          
H1       H      0.940100000000     0.690100000000     0.386000000000     0          
O1       O      0.841700000000     0.973900000000     0.378450000000     0          
C1       C      0.851600000000     0.965650000000     0.398400000000     0          
C2       C      0.839000000000     0.943500000000     0.411000000000     0          
C3       C      0.817250000000     0.932750000000     0.400300000000     0          
H1       H      0.809900000000     0.940100000000     0.386000000000     0          
O1       O      0.526100000000     0.658300000000     0.121550000000     0          
C1       C      0.534350000000     0.648400000000     0.101600000000     0          
C2       C      0.556500000000     0.661000000000     0.089000000000     0          
C3       C      0.567250000000     0.682750000000     0.099700000000     0          
H1       H      0.559900000000     0.690100000000     0.114000000000     0          
O1       O      0.841700000000     0.526100000000     0.121550000000     0          
C1       C      0.851600000000     0.534350000000     0.101600000000     0          
C2       C      0.839000000000     0.556500000000     0.089000000000     0          
C3       C      0.817250000000     0.567250000000     0.099700000000     0          
H1       H      0.809900000000     0.559900000000     0.114000000000     0          
O1       O      0.973900000000     0.841700000000     0.121550000000     0          
C1       C      0.965650000000     0.851600000000     0.101600000000     0          
C2       C      0.943500000000     0.839000000000     0.089000000000     0          
C3       C      0.932750000000     0.817250000000     0.099700000000     0          
H1       H      0.940100000000     0.809900000000     0.114000000000     0          
O1       O      0.658300000000     0.973900000000     0.121550000000     0          
C1       C      0.648400000000     0.965650000000     0.101600000000     0          
C2       C      0.661000000000     0.943500000000     0.089000000000     0          
C3       C      0.682750000000     0.932750000000     0.099700000000     0          
H1       H      0.690100000000     0.940100000000     0.114000000000     0          
O1       O      0.878450000000     0.526100000000     0.341700000000     0          
C1       C      0.898400000000     0.534350000000     0.351600000000     0          
C2       C      0.911000000000     0.556500000000     0.339000000000     0          
C3       C      0.900300000000     0.567250000000     0.317250000000     0          
H1       H      0.886000000000     0.559900000000     0.309900000000     0          
O1       O      0.878450000000     0.973900000000     0.158300000000     0          
C1       C      0.898400000000     0.965650000000     0.148400000000     0          
C2       C      0.911000000000     0.943500000000     0.161000000000     0          
C3       C      0.900300000000     0.932750000000     0.182750000000     0          
H1       H      0.886000000000     0.940100000000     0.190100000000     0          
O1       O      0.526100000000     0.878450000000     0.158300000000     0          
C1       C      0.534350000000     0.898400000000     0.148400000000     0          
C2       C      0.556500000000     0.911000000000     0.161000000000     0          
C3       C      0.567250000000     0.900300000000     0.182750000000     0          
H1       H      0.559900000000     0.886000000000     0.190100000000     0          
O1       O      0.621550000000     0.526100000000     0.158300000000     0          
C1       C      0.601600000000     0.534350000000     0.148400000000     0          
C2       C      0.589000000000     0.556500000000     0.161000000000     0          
C3       C      0.599700000000     0.567250000000     0.182750000000     0          
H1       H      0.614000000000     0.559900000000     0.190100000000     0          
O1       O      0.973900000000     0.621550000000     0.158300000000     0          
C1       C      0.965650000000     0.601600000000     0.148400000000     0          
C2       C      0.943500000000     0.589000000000     0.161000000000     0          
C3       C      0.932750000000     0.599700000000     0.182750000000     0          
H1       H      0.940100000000     0.614000000000     0.190100000000     0          
O1       O      0.621550000000     0.973900000000     0.341700000000     0          
C1       C      0.601600000000     0.965650000000     0.351600000000     0          
C2       C      0.589000000000     0.943500000000     0.339000000000     0          
C3       C      0.599700000000     0.932750000000     0.317250000000     0          
H1       H      0.614000000000     0.940100000000     0.309900000000     0          
O1       O      0.526100000000     0.621550000000     0.341700000000     0          
C1       C      0.534350000000     0.601600000000     0.351600000000     0          
C2       C      0.556500000000     0.589000000000     0.339000000000     0          
C3       C      0.567250000000     0.599700000000     0.317250000000     0          
H1       H      0.559900000000     0.614000000000     0.309900000000     0          
O1       O      0.973900000000     0.878450000000     0.341700000000     0          
C1       C      0.965650000000     0.898400000000     0.351600000000     0          
C2       C      0.943500000000     0.911000000000     0.339000000000     0          
C3       C      0.932750000000     0.900300000000     0.317250000000     0          
H1       H      0.940100000000     0.886000000000     0.309900000000     0          
Cu1      Cu     0.642650000000     0.892650000000     0.250000000000     0          
O1       O      0.658300000000     0.871550000000     0.223900000000     0          
C1       C      0.648400000000     0.851600000000     0.215650000000     0          
C2       C      0.661000000000     0.839000000000     0.193500000000     0          
C3       C      0.682750000000     0.849700000000     0.182750000000     0          
H1       H      0.690100000000     0.864000000000     0.190100000000     0          
Cu1      Cu     0.857350000000     0.892650000000     0.250000000000     0          
O1       O      0.878450000000     0.908300000000     0.223900000000     0          
C1       C      0.898400000000     0.898400000000     0.215650000000     0          
C2       C      0.911000000000     0.911000000000     0.193500000000     0          
Cu1      Cu     0.857350000000     0.607350000000     0.250000000000     0          
O1       O      0.841700000000     0.628450000000     0.223900000000     0          
C1       C      0.851600000000     0.648400000000     0.215650000000     0          
C2       C      0.839000000000     0.661000000000     0.193500000000     0          
C3       C      0.817250000000     0.650300000000     0.182750000000     0          
H1       H      0.809900000000     0.636000000000     0.190100000000     0          
Cu1      Cu     0.642650000000     0.607350000000     0.250000000000     0          
O1       O      0.621550000000     0.591700000000     0.223900000000     0          
C1       C      0.601600000000     0.601600000000     0.215650000000     0          
C2       C      0.589000000000     0.589000000000     0.193500000000     0          
O1       O      0.658300000000     0.628450000000     0.276100000000     0          
C1       C      0.648400000000     0.648400000000     0.284350000000     0          
C2       C      0.661000000000     0.661000000000     0.306500000000     0          
C3       C      0.682750000000     0.650300000000     0.317250000000     0          
H1       H      0.690100000000     0.636000000000     0.309900000000     0          
O1       O      0.621550000000     0.908300000000     0.276100000000     0          
C1       C      0.601600000000     0.898400000000     0.284350000000     0          
C2       C      0.589000000000     0.911000000000     0.306500000000     0          
O1       O      0.841700000000     0.871550000000     0.276100000000     0          
C1       C      0.851600000000     0.851600000000     0.284350000000     0          
C2       C      0.839000000000     0.839000000000     0.306500000000     0          
C3       C      0.817250000000     0.849700000000     0.317250000000     0          
H1       H      0.809900000000     0.864000000000     0.309900000000     0          
O1       O      0.878450000000     0.591700000000     0.276100000000     0          
C1       C      0.898400000000     0.601600000000     0.284350000000     0          
C2       C      0.911000000000     0.589000000000     0.306500000000     0          
Cu1      Cu     0.500000000000     0.892650000000     0.392650000000     0          
O1       O      0.973900000000     0.908300000000     0.371550000000     0          
C3       C      0.932750000000     0.932750000000     0.349700000000     0          
H1       H      0.940100000000     0.940100000000     0.364000000000     0          
Cu1      Cu     0.857350000000     0.750000000000     0.392650000000     0          
O1       O      0.841700000000     0.723900000000     0.371550000000     0          
C1       C      0.851600000000     0.715650000000     0.351600000000     0          
C2       C      0.839000000000     0.693500000000     0.339000000000     0          
C3       C      0.817250000000     0.682750000000     0.349700000000     0          
H1       H      0.809900000000     0.690100000000     0.364000000000     0          
Cu1      Cu     0.500000000000     0.607350000000     0.392650000000     0          
O1       O      0.526100000000     0.591700000000     0.371550000000     0          
C3       C      0.567250000000     0.567250000000     0.349700000000     0          
H1       H      0.559900000000     0.559900000000     0.364000000000     0          
Cu1      Cu     0.642650000000     0.750000000000     0.392650000000     0          
O1       O      0.658300000000     0.776100000000     0.371550000000     0          
C1       C      0.648400000000     0.784350000000     0.351600000000     0          
C2       C      0.661000000000     0.806500000000     0.339000000000     0          
C3       C      0.682750000000     0.817250000000     0.349700000000     0          
H1       H      0.690100000000     0.809900000000     0.364000000000     0          
Cu1      Cu     0.500000000000     0.607350000000     0.107350000000     0          
O1       O      0.973900000000     0.591700000000     0.128450000000     0          
C3       C      0.932750000000     0.567250000000     0.150300000000     0          
H1       H      0.940100000000     0.559900000000     0.136000000000     0          
Cu1      Cu     0.642650000000     0.750000000000     0.107350000000     0          
O1       O      0.658300000000     0.723900000000     0.128450000000     0          
C1       C      0.648400000000     0.715650000000     0.148400000000     0          
C2       C      0.661000000000     0.693500000000     0.161000000000     0          
C3       C      0.682750000000     0.682750000000     0.150300000000     0          
H1       H      0.690100000000     0.690100000000     0.136000000000     0          
Cu1      Cu     0.500000000000     0.892650000000     0.107350000000     0          
O1       O      0.526100000000     0.908300000000     0.128450000000     0          
C3       C      0.567250000000     0.932750000000     0.150300000000     0          
H1       H      0.559900000000     0.940100000000     0.136000000000     0          
Cu1      Cu     0.857350000000     0.750000000000     0.107350000000     0          
O1       O      0.841700000000     0.776100000000     0.128450000000     0          
C1       C      0.851600000000     0.784350000000     0.148400000000     0          
C2       C      0.839000000000     0.806500000000     0.161000000000     0          
C3       C      0.817250000000     0.817250000000     0.150300000000     0          
H1       H      0.809900000000     0.809900000000     0.136000000000     0          
O1       O      0.621550000000     0.723900000000     0.408300000000     0          
C1       C      0.601600000000     0.715650000000     0.398400000000     0          
C2       C      0.589000000000     0.693500000000     0.411000000000     0          
O1       O      0.621550000000     0.776100000000     0.091700000000     0          
C1       C      0.601600000000     0.784350000000     0.101600000000     0          
C2       C      0.589000000000     0.806500000000     0.089000000000     0          
O1       O      0.973900000000     0.871550000000     0.091700000000     0          
C3       C      0.932750000000     0.849700000000     0.067250000000     0          
H1       H      0.940100000000     0.864000000000     0.059900000000     0          
O1       O      0.878450000000     0.723900000000     0.091700000000     0          
C1       C      0.898400000000     0.715650000000     0.101600000000     0          
C2       C      0.911000000000     0.693500000000     0.089000000000     0          
O1       O      0.526100000000     0.628450000000     0.091700000000     0          
C3       C      0.567250000000     0.650300000000     0.067250000000     0          
H1       H      0.559900000000     0.636000000000     0.059900000000     0          
O1       O      0.878450000000     0.776100000000     0.408300000000     0          
C1       C      0.898400000000     0.784350000000     0.398400000000     0          
C2       C      0.911000000000     0.806500000000     0.411000000000     0          
O1       O      0.973900000000     0.628450000000     0.408300000000     0          
C3       C      0.932750000000     0.650300000000     0.432750000000     0          
H1       H      0.940100000000     0.636000000000     0.440100000000     0          
O1       O      0.526100000000     0.871550000000     0.408300000000     0          
C3       C      0.567250000000     0.849700000000     0.432750000000     0          
H1       H      0.559900000000     0.864000000000     0.440100000000     0          
O1       O      0.841700000000     0.628450000000     0.276100000000     0          
C1       C      0.851600000000     0.648400000000     0.284350000000     0          
C2       C      0.839000000000     0.661000000000     0.306500000000     0          
C3       C      0.817250000000     0.650300000000     0.317250000000     0          
H1       H      0.809900000000     0.636000000000     0.309900000000     0          
O1       O      0.621550000000     0.591700000000     0.276100000000     0          
C1       C      0.601600000000     0.601600000000     0.284350000000     0          
C2       C      0.589000000000     0.589000000000     0.306500000000     0          
O1       O      0.658300000000     0.871550000000     0.276100000000     0          
C1       C      0.648400000000     0.851600000000     0.284350000000     0          
C2       C      0.661000000000     0.839000000000     0.306500000000     0          
C3       C      0.682750000000     0.849700000000     0.317250000000     0          
H1       H      0.690100000000     0.864000000000     0.309900000000     0          
O1       O      0.878450000000     0.908300000000     0.276100000000     0          
C1       C      0.898400000000     0.898400000000     0.284350000000     0          
C2       C      0.911000000000     0.911000000000     0.306500000000     0          
O1       O      0.841700000000     0.871550000000     0.223900000000     0          
C1       C      0.851600000000     0.851600000000     0.215650000000     0          
C2       C      0.839000000000     0.839000000000     0.193500000000     0          
C3       C      0.817250000000     0.849700000000     0.182750000000     0          
H1       H      0.809900000000     0.864000000000     0.190100000000     0          
O1       O      0.878450000000     0.591700000000     0.223900000000     0          
C1       C      0.898400000000     0.601600000000     0.215650000000     0          
C2       C      0.911000000000     0.589000000000     0.193500000000     0          
O1       O      0.658300000000     0.628450000000     0.223900000000     0          
C1       C      0.648400000000     0.648400000000     0.215650000000     0          
C2       C      0.661000000000     0.661000000000     0.193500000000     0          
C3       C      0.682750000000     0.650300000000     0.182750000000     0          
H1       H      0.690100000000     0.636000000000     0.190100000000     0          
O1       O      0.621550000000     0.908300000000     0.223900000000     0          
C1       C      0.601600000000     0.898400000000     0.215650000000     0          
C2       C      0.589000000000     0.911000000000     0.193500000000     0          
O1       O      0.526100000000     0.591700000000     0.128450000000     0          
C3       C      0.567250000000     0.567250000000     0.150300000000     0          
H1       H      0.559900000000     0.559900000000     0.136000000000     0          
O1       O      0.658300000000     0.776100000000     0.128450000000     0          
C1       C      0.648400000000     0.784350000000     0.148400000000     0          
C2       C      0.661000000000     0.806500000000     0.161000000000     0          
C3       C      0.682750000000     0.817250000000     0.150300000000     0          
H1       H      0.690100000000     0.809900000000     0.136000000000     0          
O1       O      0.973900000000     0.908300000000     0.128450000000     0          
C3       C      0.932750000000     0.932750000000     0.150300000000     0          
H1       H      0.940100000000     0.940100000000     0.136000000000     0          
O1       O      0.841700000000     0.723900000000     0.128450000000     0          
C1       C      0.851600000000     0.715650000000     0.148400000000     0          
C2       C      0.839000000000     0.693500000000     0.161000000000     0          
C3       C      0.817250000000     0.682750000000     0.150300000000     0          
H1       H      0.809900000000     0.690100000000     0.136000000000     0          
O1       O      0.526100000000     0.908300000000     0.371550000000     0          
C3       C      0.567250000000     0.932750000000     0.349700000000     0          
H1       H      0.559900000000     0.940100000000     0.364000000000     0          
O1       O      0.841700000000     0.776100000000     0.371550000000     0          
C1       C      0.851600000000     0.784350000000     0.351600000000     0          
C2       C      0.839000000000     0.806500000000     0.339000000000     0          
C3       C      0.817250000000     0.817250000000     0.349700000000     0          
H1       H      0.809900000000     0.809900000000     0.364000000000     0          
O1       O      0.973900000000     0.591700000000     0.371550000000     0          
C3       C      0.932750000000     0.567250000000     0.349700000000     0          
H1       H      0.940100000000     0.559900000000     0.364000000000     0          
O1       O      0.658300000000     0.723900000000     0.371550000000     0          
C1       C      0.648400000000     0.715650000000     0.351600000000     0          
C2       C      0.661000000000     0.693500000000     0.339000000000     0          
C3       C      0.682750000000     0.682750000000     0.349700000000     0          
H1       H      0.690100000000     0.690100000000     0.364000000000     0          
O1       O      0.878450000000     0.776100000000     0.091700000000     0          
C1       C      0.898400000000     0.784350000000     0.101600000000     0          
C2       C      0.911000000000     0.806500000000     0.089000000000     0          
O1       O      0.878450000000     0.723900000000     0.408300000000     0          
C1       C      0.898400000000     0.715650000000     0.398400000000     0          
C2       C      0.911000000000     0.693500000000     0.411000000000     0          
O1       O      0.526100000000     0.628450000000     0.408300000000     0          
C3       C      0.567250000000     0.650300000000     0.432750000000     0          
H1       H      0.559900000000     0.636000000000     0.440100000000     0          
O1       O      0.621550000000     0.776100000000     0.408300000000     0          
C1       C      0.601600000000     0.784350000000     0.398400000000     0          
C2       C      0.589000000000     0.806500000000     0.411000000000     0          
O1       O      0.973900000000     0.871550000000     0.408300000000     0          
C3       C      0.932750000000     0.849700000000     0.432750000000     0          
H1       H      0.940100000000     0.864000000000     0.440100000000     0          
O1       O      0.621550000000     0.723900000000     0.091700000000     0          
C1       C      0.601600000000     0.715650000000     0.101600000000     0          
C2       C      0.589000000000     0.693500000000     0.089000000000     0          
O1       O      0.526100000000     0.871550000000     0.091700000000     0          
C3       C      0.567250000000     0.849700000000     0.067250000000     0          
H1       H      0.559900000000     0.864000000000     0.059900000000     0          
O1       O      0.973900000000     0.628450000000     0.091700000000     0          
C3       C      0.932750000000     0.650300000000     0.067250000000     0          
H1       H      0.940100000000     0.636000000000     0.059900000000     0          
Cu1      Cu     0.892650000000     0.642650000000     0.250000000000     0          
O1       O      0.908300000000     0.621550000000     0.223900000000     0          
Cu1      Cu     0.607350000000     0.642650000000     0.250000000000     0          
O1       O      0.628450000000     0.658300000000     0.223900000000     0          
C3       C      0.650300000000     0.682750000000     0.182750000000     0          
H1       H      0.636000000000     0.690100000000     0.190100000000     0          
Cu1      Cu     0.607350000000     0.857350000000     0.250000000000     0          
O1       O      0.591700000000     0.878450000000     0.223900000000     0          
Cu1      Cu     0.892650000000     0.857350000000     0.250000000000     0          
O1       O      0.871550000000     0.841700000000     0.223900000000     0          
C3       C      0.849700000000     0.817250000000     0.182750000000     0          
H1       H      0.864000000000     0.809900000000     0.190100000000     0          
O1       O      0.908300000000     0.878450000000     0.276100000000     0          
O1       O      0.871550000000     0.658300000000     0.276100000000     0          
C3       C      0.849700000000     0.682750000000     0.317250000000     0          
H1       H      0.864000000000     0.690100000000     0.309900000000     0          
O1       O      0.591700000000     0.621550000000     0.276100000000     0          
O1       O      0.628450000000     0.841700000000     0.276100000000     0          
C3       C      0.650300000000     0.817250000000     0.317250000000     0          
H1       H      0.636000000000     0.809900000000     0.309900000000     0          
Cu1      Cu     0.750000000000     0.642650000000     0.392650000000     0          
O1       O      0.723900000000     0.658300000000     0.371550000000     0          
C1       C      0.715650000000     0.648400000000     0.351600000000     0          
C2       C      0.693500000000     0.661000000000     0.339000000000     0          
Cu1      Cu     0.607350000000     0.500000000000     0.392650000000     0          
O1       O      0.591700000000     0.973900000000     0.371550000000     0          
Cu1      Cu     0.750000000000     0.857350000000     0.392650000000     0          
O1       O      0.776100000000     0.841700000000     0.371550000000     0          
C1       C      0.784350000000     0.851600000000     0.351600000000     0          
C2       C      0.806500000000     0.839000000000     0.339000000000     0          
Cu1      Cu     0.892650000000     0.500000000000     0.392650000000     0          
O1       O      0.908300000000     0.526100000000     0.371550000000     0          
Cu1      Cu     0.750000000000     0.857350000000     0.107350000000     0          
O1       O      0.723900000000     0.841700000000     0.128450000000     0          
C1       C      0.715650000000     0.851600000000     0.148400000000     0          
C2       C      0.693500000000     0.839000000000     0.161000000000     0          
Cu1      Cu     0.892650000000     0.500000000000     0.107350000000     0          
O1       O      0.908300000000     0.973900000000     0.128450000000     0          
Cu1      Cu     0.750000000000     0.642650000000     0.107350000000     0          
O1       O      0.776100000000     0.658300000000     0.128450000000     0          
C1       C      0.784350000000     0.648400000000     0.148400000000     0          
C2       C      0.806500000000     0.661000000000     0.161000000000     0          
Cu1      Cu     0.607350000000     0.500000000000     0.107350000000     0          
O1       O      0.591700000000     0.526100000000     0.128450000000     0          
O1       O      0.871550000000     0.973900000000     0.408300000000     0          
C3       C      0.849700000000     0.932750000000     0.432750000000     0          
H1       H      0.864000000000     0.940100000000     0.440100000000     0          
O1       O      0.871550000000     0.526100000000     0.091700000000     0          
C3       C      0.849700000000     0.567250000000     0.067250000000     0          
H1       H      0.864000000000     0.559900000000     0.059900000000     0          
O1       O      0.723900000000     0.621550000000     0.091700000000     0          
C1       C      0.715650000000     0.601600000000     0.101600000000     0          
C2       C      0.693500000000     0.589000000000     0.089000000000     0          
O1       O      0.628450000000     0.973900000000     0.091700000000     0          
C3       C      0.650300000000     0.932750000000     0.067250000000     0          
H1       H      0.636000000000     0.940100000000     0.059900000000     0          
O1       O      0.776100000000     0.878450000000     0.091700000000     0          
C1       C      0.784350000000     0.898400000000     0.101600000000     0          
C2       C      0.806500000000     0.911000000000     0.089000000000     0          
O1       O      0.628450000000     0.526100000000     0.408300000000     0          
C3       C      0.650300000000     0.567250000000     0.432750000000     0          
H1       H      0.636000000000     0.559900000000     0.440100000000     0          
O1       O      0.723900000000     0.878450000000     0.408300000000     0          
C1       C      0.715650000000     0.898400000000     0.398400000000     0          
C2       C      0.693500000000     0.911000000000     0.411000000000     0          
O1       O      0.776100000000     0.621550000000     0.408300000000     0          
C1       C      0.784350000000     0.601600000000     0.398400000000     0          
C2       C      0.806500000000     0.589000000000     0.411000000000     0          
O1       O      0.591700000000     0.878450000000     0.276100000000     0          
O1       O      0.871550000000     0.841700000000     0.276100000000     0          
C3       C      0.849700000000     0.817250000000     0.317250000000     0          
H1       H      0.864000000000     0.809900000000     0.309900000000     0          
O1       O      0.908300000000     0.621550000000     0.276100000000     0          
O1       O      0.628450000000     0.658300000000     0.276100000000     0          
C3       C      0.650300000000     0.682750000000     0.317250000000     0          
H1       H      0.636000000000     0.690100000000     0.309900000000     0          
O1       O      0.591700000000     0.621550000000     0.223900000000     0          
O1       O      0.628450000000     0.841700000000     0.223900000000     0          
C3       C      0.650300000000     0.817250000000     0.182750000000     0          
H1       H      0.636000000000     0.809900000000     0.190100000000     0          
O1       O      0.908300000000     0.878450000000     0.223900000000     0          
O1       O      0.871550000000     0.658300000000     0.223900000000     0          
C3       C      0.849700000000     0.682750000000     0.182750000000     0          
H1       H      0.864000000000     0.690100000000     0.190100000000     0          
O1       O      0.776100000000     0.841700000000     0.128450000000     0          
C1       C      0.784350000000     0.851600000000     0.148400000000     0          
C2       C      0.806500000000     0.839000000000     0.161000000000     0          
O1       O      0.908300000000     0.526100000000     0.128450000000     0          
O1       O      0.723900000000     0.658300000000     0.128450000000     0          
C1       C      0.715650000000     0.648400000000     0.148400000000     0          
C2       C      0.693500000000     0.661000000000     0.161000000000     0          
O1       O      0.591700000000     0.973900000000     0.128450000000     0          
O1       O      0.776100000000     0.658300000000     0.371550000000     0          
C1       C      0.784350000000     0.648400000000     0.351600000000     0          
C2       C      0.806500000000     0.661000000000     0.339000000000     0          
O1       O      0.591700000000     0.526100000000     0.371550000000     0          
O1       O      0.723900000000     0.841700000000     0.371550000000     0          
C1       C      0.715650000000     0.851600000000     0.351600000000     0          
C2       C      0.693500000000     0.839000000000     0.339000000000     0          
O1       O      0.908300000000     0.973900000000     0.371550000000     0          
O1       O      0.628450000000     0.526100000000     0.091700000000     0          
C3       C      0.650300000000     0.567250000000     0.067250000000     0          
H1       H      0.636000000000     0.559900000000     0.059900000000     0          
O1       O      0.628450000000     0.973900000000     0.408300000000     0          
C3       C      0.650300000000     0.932750000000     0.432750000000     0          
H1       H      0.636000000000     0.940100000000     0.440100000000     0          
O1       O      0.776100000000     0.878450000000     0.408300000000     0          
C1       C      0.784350000000     0.898400000000     0.398400000000     0          
C2       C      0.806500000000     0.911000000000     0.411000000000     0          
O1       O      0.871550000000     0.526100000000     0.408300000000     0          
C3       C      0.849700000000     0.567250000000     0.432750000000     0          
H1       H      0.864000000000     0.559900000000     0.440100000000     0          
O1       O      0.723900000000     0.621550000000     0.408300000000     0          
C1       C      0.715650000000     0.601600000000     0.398400000000     0          
C2       C      0.693500000000     0.589000000000     0.411000000000     0          
O1       O      0.871550000000     0.973900000000     0.091700000000     0          
C3       C      0.849700000000     0.932750000000     0.067250000000     0          
H1       H      0.864000000000     0.940100000000     0.059900000000     0          
O1       O      0.776100000000     0.621550000000     0.091700000000     0          
C1       C      0.784350000000     0.601600000000     0.101600000000     0          
C2       C      0.806500000000     0.589000000000     0.089000000000     0          
O1       O      0.723900000000     0.878450000000     0.091700000000     0          
C1       C      0.715650000000     0.898400000000     0.101600000000     0          
C2       C      0.693500000000     0.911000000000     0.089000000000     0          
Cu1      Cu     0.892650000000     0.892650000000     0.000000000000     0          
O1       O      0.908300000000     0.871550000000     0.473900000000     0          
Cu1      Cu     0.607350000000     0.892650000000     0.000000000000     0          
O1       O      0.628450000000     0.908300000000     0.473900000000     0          
Cu1      Cu     0.607350000000     0.607350000000     0.000000000000     0          
O1       O      0.591700000000     0.628450000000     0.473900000000     0          
Cu1      Cu     0.892650000000     0.607350000000     0.000000000000     0          
O1       O      0.871550000000     0.591700000000     0.473900000000     0          
O1       O      0.908300000000     0.628450000000     0.026100000000     0          
O1       O      0.871550000000     0.908300000000     0.026100000000     0          
O1       O      0.591700000000     0.871550000000     0.026100000000     0          
O1       O      0.628450000000     0.591700000000     0.026100000000     0          
Cu1      Cu     0.750000000000     0.892650000000     0.142650000000     0          
O1       O      0.723900000000     0.908300000000     0.121550000000     0          
Cu1      Cu     0.607350000000     0.750000000000     0.142650000000     0          
O1       O      0.591700000000     0.723900000000     0.121550000000     0          
Cu1      Cu     0.750000000000     0.607350000000     0.142650000000     0          
O1       O      0.776100000000     0.591700000000     0.121550000000     0          
Cu1      Cu     0.892650000000     0.750000000000     0.142650000000     0          
O1       O      0.908300000000     0.776100000000     0.121550000000     0          
Cu1      Cu     0.750000000000     0.607350000000     0.357350000000     0          
O1       O      0.723900000000     0.591700000000     0.378450000000     0          
Cu1      Cu     0.892650000000     0.750000000000     0.357350000000     0          
O1       O      0.908300000000     0.723900000000     0.378450000000     0          
Cu1      Cu     0.750000000000     0.892650000000     0.357350000000     0          
O1       O      0.776100000000     0.908300000000     0.378450000000     0          
Cu1      Cu     0.607350000000     0.750000000000     0.357350000000     0          
O1       O      0.591700000000     0.776100000000     0.378450000000     0          
O1       O      0.871550000000     0.723900000000     0.158300000000     0          
O1       O      0.871550000000     0.776100000000     0.341700000000     0          
O1       O      0.723900000000     0.871550000000     0.341700000000     0          
O1       O      0.628450000000     0.723900000000     0.341700000000     0          
O1       O      0.776100000000     0.628450000000     0.341700000000     0          
O1       O      0.628450000000     0.776100000000     0.158300000000     0          
O1       O      0.723900000000     0.628450000000     0.158300000000     0          
O1       O      0.776100000000     0.871550000000     0.158300000000     0          
O1       O      0.591700000000     0.628450000000     0.026100000000     0          
O1       O      0.871550000000     0.591700000000     0.026100000000     0          
O1       O      0.908300000000     0.871550000000     0.026100000000     0          
O1       O      0.628450000000     0.908300000000     0.026100000000     0          
O1       O      0.591700000000     0.871550000000     0.473900000000     0          
O1       O      0.628450000000     0.591700000000     0.473900000000     0          
O1       O      0.908300000000     0.628450000000     0.473900000000     0          
O1       O      0.871550000000     0.908300000000     0.473900000000     0          
O1       O      0.776100000000     0.591700000000     0.378450000000     0          
O1       O      0.908300000000     0.776100000000     0.378450000000     0          
O1       O      0.723900000000     0.908300000000     0.378450000000     0          
O1       O      0.591700000000     0.723900000000     0.378450000000     0          
O1       O      0.776100000000     0.908300000000     0.121550000000     0          
O1       O      0.591700000000     0.776100000000     0.121550000000     0          
O1       O      0.723900000000     0.591700000000     0.121550000000     0          
O1       O      0.908300000000     0.723900000000     0.121550000000     0          
O1       O      0.628450000000     0.776100000000     0.341700000000     0          
O1       O      0.628450000000     0.723900000000     0.158300000000     0          
O1       O      0.776100000000     0.628450000000     0.158300000000     0          
O1       O      0.871550000000     0.776100000000     0.158300000000     0          
O1       O      0.723900000000     0.871550000000     0.158300000000     0          
O1       O      0.871550000000     0.723900000000     0.341700000000     0          
O1       O      0.776100000000     0.871550000000     0.341700000000     0          
O1       O      0.723900000000     0.628450000000     0.341700000000     0          
Cu1      Cu     0.642650000000     0.642650000000     0.500000000000     0          
O1       O      0.658300000000     0.621550000000     0.973900000000     0          
C1       C      0.648400000000     0.601600000000     0.965650000000     0          
C2       C      0.661000000000     0.589000000000     0.943500000000     0          
C3       C      0.682750000000     0.599700000000     0.932750000000     0          
H1       H      0.690100000000     0.614000000000     0.940100000000     0          
Cu1      Cu     0.857350000000     0.642650000000     0.500000000000     0          
O1       O      0.878450000000     0.658300000000     0.973900000000     0          
C1       C      0.898400000000     0.648400000000     0.965650000000     0          
C2       C      0.911000000000     0.661000000000     0.943500000000     0          
C3       C      0.900300000000     0.682750000000     0.932750000000     0          
H1       H      0.886000000000     0.690100000000     0.940100000000     0          
Cu1      Cu     0.857350000000     0.857350000000     0.500000000000     0          
O1       O      0.841700000000     0.878450000000     0.973900000000     0          
C1       C      0.851600000000     0.898400000000     0.965650000000     0          
C2       C      0.839000000000     0.911000000000     0.943500000000     0          
C3       C      0.817250000000     0.900300000000     0.932750000000     0          
H1       H      0.809900000000     0.886000000000     0.940100000000     0          
Cu1      Cu     0.642650000000     0.857350000000     0.500000000000     0          
O1       O      0.621550000000     0.841700000000     0.973900000000     0          
C1       C      0.601600000000     0.851600000000     0.965650000000     0          
C2       C      0.589000000000     0.839000000000     0.943500000000     0          
C3       C      0.599700000000     0.817250000000     0.932750000000     0          
H1       H      0.614000000000     0.809900000000     0.940100000000     0          
O1       O      0.658300000000     0.878450000000     0.526100000000     0          
C1       C      0.648400000000     0.898400000000     0.534350000000     0          
C2       C      0.661000000000     0.911000000000     0.556500000000     0          
C3       C      0.682750000000     0.900300000000     0.567250000000     0          
H1       H      0.690100000000     0.886000000000     0.559900000000     0          
O1       O      0.621550000000     0.658300000000     0.526100000000     0          
C1       C      0.601600000000     0.648400000000     0.534350000000     0          
C2       C      0.589000000000     0.661000000000     0.556500000000     0          
C3       C      0.599700000000     0.682750000000     0.567250000000     0          
H1       H      0.614000000000     0.690100000000     0.559900000000     0          
O1       O      0.841700000000     0.621550000000     0.526100000000     0          
C1       C      0.851600000000     0.601600000000     0.534350000000     0          
C2       C      0.839000000000     0.589000000000     0.556500000000     0          
C3       C      0.817250000000     0.599700000000     0.567250000000     0          
H1       H      0.809900000000     0.614000000000     0.559900000000     0          
O1       O      0.878450000000     0.841700000000     0.526100000000     0          
C1       C      0.898400000000     0.851600000000     0.534350000000     0          
C2       C      0.911000000000     0.839000000000     0.556500000000     0          
C3       C      0.900300000000     0.817250000000     0.567250000000     0          
H1       H      0.886000000000     0.809900000000     0.559900000000     0          
Cu1      Cu     0.500000000000     0.642650000000     0.642650000000     0          
O1       O      0.973900000000     0.658300000000     0.621550000000     0          
C1       C      0.965650000000     0.648400000000     0.601600000000     0          
C2       C      0.943500000000     0.661000000000     0.589000000000     0          
C3       C      0.932750000000     0.682750000000     0.599700000000     0          
H1       H      0.940100000000     0.690100000000     0.614000000000     0          
Cu1      Cu     0.857350000000     0.500000000000     0.642650000000     0          
O1       O      0.841700000000     0.973900000000     0.621550000000     0          
C1       C      0.851600000000     0.965650000000     0.601600000000     0          
C2       C      0.839000000000     0.943500000000     0.589000000000     0          
C3       C      0.817250000000     0.932750000000     0.599700000000     0          
H1       H      0.809900000000     0.940100000000     0.614000000000     0          
Cu1      Cu     0.500000000000     0.857350000000     0.642650000000     0          
O1       O      0.526100000000     0.841700000000     0.621550000000     0          
C1       C      0.534350000000     0.851600000000     0.601600000000     0          
C2       C      0.556500000000     0.839000000000     0.589000000000     0          
C3       C      0.567250000000     0.817250000000     0.599700000000     0          
H1       H      0.559900000000     0.809900000000     0.614000000000     0          
Cu1      Cu     0.642650000000     0.500000000000     0.642650000000     0          
O1       O      0.658300000000     0.526100000000     0.621550000000     0          
C1       C      0.648400000000     0.534350000000     0.601600000000     0          
C2       C      0.661000000000     0.556500000000     0.589000000000     0          
C3       C      0.682750000000     0.567250000000     0.599700000000     0          
H1       H      0.690100000000     0.559900000000     0.614000000000     0          
Cu1      Cu     0.500000000000     0.857350000000     0.857350000000     0          
O1       O      0.973900000000     0.841700000000     0.878450000000     0          
C1       C      0.965650000000     0.851600000000     0.898400000000     0          
C2       C      0.943500000000     0.839000000000     0.911000000000     0          
C3       C      0.932750000000     0.817250000000     0.900300000000     0          
H1       H      0.940100000000     0.809900000000     0.886000000000     0          
Cu1      Cu     0.642650000000     0.500000000000     0.857350000000     0          
O1       O      0.658300000000     0.973900000000     0.878450000000     0          
C1       C      0.648400000000     0.965650000000     0.898400000000     0          
C2       C      0.661000000000     0.943500000000     0.911000000000     0          
C3       C      0.682750000000     0.932750000000     0.900300000000     0          
H1       H      0.690100000000     0.940100000000     0.886000000000     0          
Cu1      Cu     0.500000000000     0.642650000000     0.857350000000     0          
O1       O      0.526100000000     0.658300000000     0.878450000000     0          
C1       C      0.534350000000     0.648400000000     0.898400000000     0          
C2       C      0.556500000000     0.661000000000     0.911000000000     0          
C3       C      0.567250000000     0.682750000000     0.900300000000     0          
H1       H      0.559900000000     0.690100000000     0.886000000000     0          
Cu1      Cu     0.857350000000     0.500000000000     0.857350000000     0          
O1       O      0.841700000000     0.526100000000     0.878450000000     0          
C1       C      0.851600000000     0.534350000000     0.898400000000     0          
C2       C      0.839000000000     0.556500000000     0.911000000000     0          
C3       C      0.817250000000     0.567250000000     0.900300000000     0          
H1       H      0.809900000000     0.559900000000     0.886000000000     0          
O1       O      0.621550000000     0.973900000000     0.658300000000     0          
C1       C      0.601600000000     0.965650000000     0.648400000000     0          
C2       C      0.589000000000     0.943500000000     0.661000000000     0          
C3       C      0.599700000000     0.932750000000     0.682750000000     0          
H1       H      0.614000000000     0.940100000000     0.690100000000     0          
O1       O      0.621550000000     0.526100000000     0.841700000000     0          
C1       C      0.601600000000     0.534350000000     0.851600000000     0          
C2       C      0.589000000000     0.556500000000     0.839000000000     0          
C3       C      0.599700000000     0.567250000000     0.817250000000     0          
H1       H      0.614000000000     0.559900000000     0.809900000000     0          
O1       O      0.973900000000     0.621550000000     0.841700000000     0          
C1       C      0.965650000000     0.601600000000     0.851600000000     0          
C2       C      0.943500000000     0.589000000000     0.839000000000     0          
C3       C      0.932750000000     0.599700000000     0.817250000000     0          
H1       H      0.940100000000     0.614000000000     0.809900000000     0          
O1       O      0.878450000000     0.973900000000     0.841700000000     0          
C1       C      0.898400000000     0.965650000000     0.851600000000     0          
C2       C      0.911000000000     0.943500000000     0.839000000000     0          
C3       C      0.900300000000     0.932750000000     0.817250000000     0          
H1       H      0.886000000000     0.940100000000     0.809900000000     0          
O1       O      0.526100000000     0.878450000000     0.841700000000     0          
C1       C      0.534350000000     0.898400000000     0.851600000000     0          
C2       C      0.556500000000     0.911000000000     0.839000000000     0          
C3       C      0.567250000000     0.900300000000     0.817250000000     0          
H1       H      0.559900000000     0.886000000000     0.809900000000     0          
O1       O      0.878450000000     0.526100000000     0.658300000000     0          
C1       C      0.898400000000     0.534350000000     0.648400000000     0          
C2       C      0.911000000000     0.556500000000     0.661000000000     0          
C3       C      0.900300000000     0.567250000000     0.682750000000     0          
H1       H      0.886000000000     0.559900000000     0.690100000000     0          
O1       O      0.973900000000     0.878450000000     0.658300000000     0          
C1       C      0.965650000000     0.898400000000     0.648400000000     0          
C2       C      0.943500000000     0.911000000000     0.661000000000     0          
C3       C      0.932750000000     0.900300000000     0.682750000000     0          
H1       H      0.940100000000     0.886000000000     0.690100000000     0          
O1       O      0.526100000000     0.621550000000     0.658300000000     0          
C1       C      0.534350000000     0.601600000000     0.648400000000     0          
C2       C      0.556500000000     0.589000000000     0.661000000000     0          
C3       C      0.567250000000     0.599700000000     0.682750000000     0          
H1       H      0.559900000000     0.614000000000     0.690100000000     0          
O1       O      0.841700000000     0.878450000000     0.526100000000     0          
C1       C      0.851600000000     0.898400000000     0.534350000000     0          
C2       C      0.839000000000     0.911000000000     0.556500000000     0          
C3       C      0.817250000000     0.900300000000     0.567250000000     0          
H1       H      0.809900000000     0.886000000000     0.559900000000     0          
O1       O      0.621550000000     0.841700000000     0.526100000000     0          
C1       C      0.601600000000     0.851600000000     0.534350000000     0          
C2       C      0.589000000000     0.839000000000     0.556500000000     0          
C3       C      0.599700000000     0.817250000000     0.567250000000     0          
H1       H      0.614000000000     0.809900000000     0.559900000000     0          
O1       O      0.658300000000     0.621550000000     0.526100000000     0          
C1       C      0.648400000000     0.601600000000     0.534350000000     0          
C2       C      0.661000000000     0.589000000000     0.556500000000     0          
C3       C      0.682750000000     0.599700000000     0.567250000000     0          
H1       H      0.690100000000     0.614000000000     0.559900000000     0          
O1       O      0.878450000000     0.658300000000     0.526100000000     0          
C1       C      0.898400000000     0.648400000000     0.534350000000     0          
C2       C      0.911000000000     0.661000000000     0.556500000000     0          
C3       C      0.900300000000     0.682750000000     0.567250000000     0          
H1       H      0.886000000000     0.690100000000     0.559900000000     0          
O1       O      0.841700000000     0.621550000000     0.973900000000     0          
C1       C      0.851600000000     0.601600000000     0.965650000000     0          
C2       C      0.839000000000     0.589000000000     0.943500000000     0          
C3       C      0.817250000000     0.599700000000     0.932750000000     0          
H1       H      0.809900000000     0.614000000000     0.940100000000     0          
O1       O      0.878450000000     0.841700000000     0.973900000000     0          
C1       C      0.898400000000     0.851600000000     0.965650000000     0          
C2       C      0.911000000000     0.839000000000     0.943500000000     0          
C3       C      0.900300000000     0.817250000000     0.932750000000     0          
H1       H      0.886000000000     0.809900000000     0.940100000000     0          
O1       O      0.658300000000     0.878450000000     0.973900000000     0          
C1       C      0.648400000000     0.898400000000     0.965650000000     0          
C2       C      0.661000000000     0.911000000000     0.943500000000     0          
C3       C      0.682750000000     0.900300000000     0.932750000000     0          
H1       H      0.690100000000     0.886000000000     0.940100000000     0          
O1       O      0.621550000000     0.658300000000     0.973900000000     0          
C1       C      0.601600000000     0.648400000000     0.965650000000     0          
C2       C      0.589000000000     0.661000000000     0.943500000000     0          
C3       C      0.599700000000     0.682750000000     0.932750000000     0          
H1       H      0.614000000000     0.690100000000     0.940100000000     0          
O1       O      0.526100000000     0.841700000000     0.878450000000     0          
C1       C      0.534350000000     0.851600000000     0.898400000000     0          
C2       C      0.556500000000     0.839000000000     0.911000000000     0          
C3       C      0.567250000000     0.817250000000     0.900300000000     0          
H1       H      0.559900000000     0.809900000000     0.886000000000     0          
O1       O      0.658300000000     0.526100000000     0.878450000000     0          
C1       C      0.648400000000     0.534350000000     0.898400000000     0          
C2       C      0.661000000000     0.556500000000     0.911000000000     0          
C3       C      0.682750000000     0.567250000000     0.900300000000     0          
H1       H      0.690100000000     0.559900000000     0.886000000000     0          
O1       O      0.973900000000     0.658300000000     0.878450000000     0          
C1       C      0.965650000000     0.648400000000     0.898400000000     0          
C2       C      0.943500000000     0.661000000000     0.911000000000     0          
C3       C      0.932750000000     0.682750000000     0.900300000000     0          
H1       H      0.940100000000     0.690100000000     0.886000000000     0          
O1       O      0.841700000000     0.973900000000     0.878450000000     0          
C1       C      0.851600000000     0.965650000000     0.898400000000     0          
C2       C      0.839000000000     0.943500000000     0.911000000000     0          
C3       C      0.817250000000     0.932750000000     0.900300000000     0          
H1       H      0.809900000000     0.940100000000     0.886000000000     0          
O1       O      0.526100000000     0.658300000000     0.621550000000     0          
C1       C      0.534350000000     0.648400000000     0.601600000000     0          
C2       C      0.556500000000     0.661000000000     0.589000000000     0          
C3       C      0.567250000000     0.682750000000     0.599700000000     0          
H1       H      0.559900000000     0.690100000000     0.614000000000     0          
O1       O      0.841700000000     0.526100000000     0.621550000000     0          
C1       C      0.851600000000     0.534350000000     0.601600000000     0          
C2       C      0.839000000000     0.556500000000     0.589000000000     0          
C3       C      0.817250000000     0.567250000000     0.599700000000     0          
H1       H      0.809900000000     0.559900000000     0.614000000000     0          
O1       O      0.973900000000     0.841700000000     0.621550000000     0          
C1       C      0.965650000000     0.851600000000     0.601600000000     0          
C2       C      0.943500000000     0.839000000000     0.589000000000     0          
C3       C      0.932750000000     0.817250000000     0.599700000000     0          
H1       H      0.940100000000     0.809900000000     0.614000000000     0          
O1       O      0.658300000000     0.973900000000     0.621550000000     0          
C1       C      0.648400000000     0.965650000000     0.601600000000     0          
C2       C      0.661000000000     0.943500000000     0.589000000000     0          
C3       C      0.682750000000     0.932750000000     0.599700000000     0          
H1       H      0.690100000000     0.940100000000     0.614000000000     0          
O1       O      0.878450000000     0.526100000000     0.841700000000     0          
C1       C      0.898400000000     0.534350000000     0.851600000000     0          
C2       C      0.911000000000     0.556500000000     0.839000000000     0          
C3       C      0.900300000000     0.567250000000     0.817250000000     0          
H1       H      0.886000000000     0.559900000000     0.809900000000     0          
O1       O      0.878450000000     0.973900000000     0.658300000000     0          
C1       C      0.898400000000     0.965650000000     0.648400000000     0          
C2       C      0.911000000000     0.943500000000     0.661000000000     0          
C3       C      0.900300000000     0.932750000000     0.682750000000     0          
H1       H      0.886000000000     0.940100000000     0.690100000000     0          
O1       O      0.526100000000     0.878450000000     0.658300000000     0          
C1       C      0.534350000000     0.898400000000     0.648400000000     0          
C2       C      0.556500000000     0.911000000000     0.661000000000     0          
C3       C      0.567250000000     0.900300000000     0.682750000000     0          
H1       H      0.559900000000     0.886000000000     0.690100000000     0          
O1       O      0.621550000000     0.526100000000     0.658300000000     0          
C1       C      0.601600000000     0.534350000000     0.648400000000     0          
C2       C      0.589000000000     0.556500000000     0.661000000000     0          
C3       C      0.599700000000     0.567250000000     0.682750000000     0          
H1       H      0.614000000000     0.559900000000     0.690100000000     0          
O1       O      0.973900000000     0.621550000000     0.658300000000     0          
C1       C      0.965650000000     0.601600000000     0.648400000000     0          
C2       C      0.943500000000     0.589000000000     0.661000000000     0          
C3       C      0.932750000000     0.599700000000     0.682750000000     0          
H1       H      0.940100000000     0.614000000000     0.690100000000     0          
O1       O      0.621550000000     0.973900000000     0.841700000000     0          
C1       C      0.601600000000     0.965650000000     0.851600000000     0          
C2       C      0.589000000000     0.943500000000     0.839000000000     0          
C3       C      0.599700000000     0.932750000000     0.817250000000     0          
H1       H      0.614000000000     0.940100000000     0.809900000000     0          
O1       O      0.526100000000     0.621550000000     0.841700000000     0          
C1       C      0.534350000000     0.601600000000     0.851600000000     0          
C2       C      0.556500000000     0.589000000000     0.839000000000     0          
C3       C      0.567250000000     0.599700000000     0.817250000000     0          
H1       H      0.559900000000     0.614000000000     0.809900000000     0          
O1       O      0.973900000000     0.878450000000     0.841700000000     0          
C1       C      0.965650000000     0.898400000000     0.851600000000     0          
C2       C      0.943500000000     0.911000000000     0.839000000000     0          
C3       C      0.932750000000     0.900300000000     0.817250000000     0          
H1       H      0.940100000000     0.886000000000     0.809900000000     0          
Cu1      Cu     0.642650000000     0.892650000000     0.750000000000     0          
O1       O      0.658300000000     0.871550000000     0.723900000000     0          
C1       C      0.648400000000     0.851600000000     0.715650000000     0          
C2       C      0.661000000000     0.839000000000     0.693500000000     0          
C3       C      0.682750000000     0.849700000000     0.682750000000     0          
H1       H      0.690100000000     0.864000000000     0.690100000000     0          
Cu1      Cu     0.857350000000     0.892650000000     0.750000000000     0          
O1       O      0.878450000000     0.908300000000     0.723900000000     0          
C1       C      0.898400000000     0.898400000000     0.715650000000     0          
C2       C      0.911000000000     0.911000000000     0.693500000000     0          
Cu1      Cu     0.857350000000     0.607350000000     0.750000000000     0          
O1       O      0.841700000000     0.628450000000     0.723900000000     0          
C1       C      0.851600000000     0.648400000000     0.715650000000     0          
C2       C      0.839000000000     0.661000000000     0.693500000000     0          
C3       C      0.817250000000     0.650300000000     0.682750000000     0          
H1       H      0.809900000000     0.636000000000     0.690100000000     0          
Cu1      Cu     0.642650000000     0.607350000000     0.750000000000     0          
O1       O      0.621550000000     0.591700000000     0.723900000000     0          
C1       C      0.601600000000     0.601600000000     0.715650000000     0          
C2       C      0.589000000000     0.589000000000     0.693500000000     0          
O1       O      0.658300000000     0.628450000000     0.776100000000     0          
C1       C      0.648400000000     0.648400000000     0.784350000000     0          
C2       C      0.661000000000     0.661000000000     0.806500000000     0          
C3       C      0.682750000000     0.650300000000     0.817250000000     0          
H1       H      0.690100000000     0.636000000000     0.809900000000     0          
O1       O      0.621550000000     0.908300000000     0.776100000000     0          
C1       C      0.601600000000     0.898400000000     0.784350000000     0          
C2       C      0.589000000000     0.911000000000     0.806500000000     0          
O1       O      0.841700000000     0.871550000000     0.776100000000     0          
C1       C      0.851600000000     0.851600000000     0.784350000000     0          
C2       C      0.839000000000     0.839000000000     0.806500000000     0          
C3       C      0.817250000000     0.849700000000     0.817250000000     0          
H1       H      0.809900000000     0.864000000000     0.809900000000     0          
O1       O      0.878450000000     0.591700000000     0.776100000000     0          
C1       C      0.898400000000     0.601600000000     0.784350000000     0          
C2       C      0.911000000000     0.589000000000     0.806500000000     0          
Cu1      Cu     0.500000000000     0.892650000000     0.892650000000     0          
O1       O      0.973900000000     0.908300000000     0.871550000000     0          
C3       C      0.932750000000     0.932750000000     0.849700000000     0          
H1       H      0.940100000000     0.940100000000     0.864000000000     0          
Cu1      Cu     0.857350000000     0.750000000000     0.892650000000     0          
O1       O      0.841700000000     0.723900000000     0.871550000000     0          
C1       C      0.851600000000     0.715650000000     0.851600000000     0          
C2       C      0.839000000000     0.693500000000     0.839000000000     0          
C3       C      0.817250000000     0.682750000000     0.849700000000     0          
H1       H      0.809900000000     0.690100000000     0.864000000000     0          
Cu1      Cu     0.500000000000     0.607350000000     0.892650000000     0          
O1       O      0.526100000000     0.591700000000     0.871550000000     0          
C3       C      0.567250000000     0.567250000000     0.849700000000     0          
H1       H      0.559900000000     0.559900000000     0.864000000000     0          
Cu1      Cu     0.642650000000     0.750000000000     0.892650000000     0          
O1       O      0.658300000000     0.776100000000     0.871550000000     0          
C1       C      0.648400000000     0.784350000000     0.851600000000     0          
C2       C      0.661000000000     0.806500000000     0.839000000000     0          
C3       C      0.682750000000     0.817250000000     0.849700000000     0          
H1       H      0.690100000000     0.809900000000     0.864000000000     0          
Cu1      Cu     0.500000000000     0.607350000000     0.607350000000     0          
O1       O      0.973900000000     0.591700000000     0.628450000000     0          
C3       C      0.932750000000     0.567250000000     0.650300000000     0          
H1       H      0.940100000000     0.559900000000     0.636000000000     0          
Cu1      Cu     0.642650000000     0.750000000000     0.607350000000     0          
O1       O      0.658300000000     0.723900000000     0.628450000000     0          
C1       C      0.648400000000     0.715650000000     0.648400000000     0          
C2       C      0.661000000000     0.693500000000     0.661000000000     0          
C3       C      0.682750000000     0.682750000000     0.650300000000     0          
H1       H      0.690100000000     0.690100000000     0.636000000000     0          
Cu1      Cu     0.500000000000     0.892650000000     0.607350000000     0          
O1       O      0.526100000000     0.908300000000     0.628450000000     0          
C3       C      0.567250000000     0.932750000000     0.650300000000     0          
H1       H      0.559900000000     0.940100000000     0.636000000000     0          
Cu1      Cu     0.857350000000     0.750000000000     0.607350000000     0          
O1       O      0.841700000000     0.776100000000     0.628450000000     0          
C1       C      0.851600000000     0.784350000000     0.648400000000     0          
C2       C      0.839000000000     0.806500000000     0.661000000000     0          
C3       C      0.817250000000     0.817250000000     0.650300000000     0          
H1       H      0.809900000000     0.809900000000     0.636000000000     0          
O1       O      0.621550000000     0.723900000000     0.908300000000     0          
C1       C      0.601600000000     0.715650000000     0.898400000000     0          
C2       C      0.589000000000     0.693500000000     0.911000000000     0          
O1       O      0.621550000000     0.776100000000     0.591700000000     0          
C1       C      0.601600000000     0.784350000000     0.601600000000     0          
C2       C      0.589000000000     0.806500000000     0.589000000000     0          
O1       O      0.973900000000     0.871550000000     0.591700000000     0          
C3       C      0.932750000000     0.849700000000     0.567250000000     0          
H1       H      0.940100000000     0.864000000000     0.559900000000     0          
O1       O      0.878450000000     0.723900000000     0.591700000000     0          
C1       C      0.898400000000     0.715650000000     0.601600000000     0          
C2       C      0.911000000000     0.693500000000     0.589000000000     0          
O1       O      0.526100000000     0.628450000000     0.591700000000     0          
C3       C      0.567250000000     0.650300000000     0.567250000000     0          
H1       H      0.559900000000     0.636000000000     0.559900000000     0          
O1       O      0.878450000000     0.776100000000     0.908300000000     0          
C1       C      0.898400000000     0.784350000000     0.898400000000     0          
C2       C      0.911000000000     0.806500000000     0.911000000000     0          
O1       O      0.973900000000     0.628450000000     0.908300000000     0          
C3       C      0.932750000000     0.650300000000     0.932750000000     0          
H1       H      0.940100000000     0.636000000000     0.940100000000     0          
O1       O      0.526100000000     0.871550000000     0.908300000000     0          
C3       C      0.567250000000     0.849700000000     0.932750000000     0          
H1       H      0.559900000000     0.864000000000     0.940100000000     0          
O1       O      0.841700000000     0.628450000000     0.776100000000     0          
C1       C      0.851600000000     0.648400000000     0.784350000000     0          
C2       C      0.839000000000     0.661000000000     0.806500000000     0          
C3       C      0.817250000000     0.650300000000     0.817250000000     0          
H1       H      0.809900000000     0.636000000000     0.809900000000     0          
O1       O      0.621550000000     0.591700000000     0.776100000000     0          
C1       C      0.601600000000     0.601600000000     0.784350000000     0          
C2       C      0.589000000000     0.589000000000     0.806500000000     0          
O1       O      0.658300000000     0.871550000000     0.776100000000     0          
C1       C      0.648400000000     0.851600000000     0.784350000000     0          
C2       C      0.661000000000     0.839000000000     0.806500000000     0          
C3       C      0.682750000000     0.849700000000     0.817250000000     0          
H1       H      0.690100000000     0.864000000000     0.809900000000     0          
O1       O      0.878450000000     0.908300000000     0.776100000000     0          
C1       C      0.898400000000     0.898400000000     0.784350000000     0          
C2       C      0.911000000000     0.911000000000     0.806500000000     0          
O1       O      0.841700000000     0.871550000000     0.723900000000     0          
C1       C      0.851600000000     0.851600000000     0.715650000000     0          
C2       C      0.839000000000     0.839000000000     0.693500000000     0          
C3       C      0.817250000000     0.849700000000     0.682750000000     0          
H1       H      0.809900000000     0.864000000000     0.690100000000     0          
O1       O      0.878450000000     0.591700000000     0.723900000000     0          
C1       C      0.898400000000     0.601600000000     0.715650000000     0          
C2       C      0.911000000000     0.589000000000     0.693500000000     0          
O1       O      0.658300000000     0.628450000000     0.723900000000     0          
C1       C      0.648400000000     0.648400000000     0.715650000000     0          
C2       C      0.661000000000     0.661000000000     0.693500000000     0          
C3       C      0.682750000000     0.650300000000     0.682750000000     0          
H1       H      0.690100000000     0.636000000000     0.690100000000     0          
O1       O      0.621550000000     0.908300000000     0.723900000000     0          
C1       C      0.601600000000     0.898400000000     0.715650000000     0          
C2       C      0.589000000000     0.911000000000     0.693500000000     0          
O1       O      0.526100000000     0.591700000000     0.628450000000     0          
C3       C      0.567250000000     0.567250000000     0.650300000000     0          
H1       H      0.559900000000     0.559900000000     0.636000000000     0          
O1       O      0.658300000000     0.776100000000     0.628450000000     0          
C1       C      0.648400000000     0.784350000000     0.648400000000     0          
C2       C      0.661000000000     0.806500000000     0.661000000000     0          
C3       C      0.682750000000     0.817250000000     0.650300000000     0          
H1       H      0.690100000000     0.809900000000     0.636000000000     0          
O1       O      0.973900000000     0.908300000000     0.628450000000     0          
C3       C      0.932750000000     0.932750000000     0.650300000000     0          
H1       H      0.940100000000     0.940100000000     0.636000000000     0          
O1       O      0.841700000000     0.723900000000     0.628450000000     0          
C1       C      0.851600000000     0.715650000000     0.648400000000     0          
C2       C      0.839000000000     0.693500000000     0.661000000000     0          
C3       C      0.817250000000     0.682750000000     0.650300000000     0          
H1       H      0.809900000000     0.690100000000     0.636000000000     0          
O1       O      0.526100000000     0.908300000000     0.871550000000     0          
C3       C      0.567250000000     0.932750000000     0.849700000000     0          
H1       H      0.559900000000     0.940100000000     0.864000000000     0          
O1       O      0.841700000000     0.776100000000     0.871550000000     0          
C1       C      0.851600000000     0.784350000000     0.851600000000     0          
C2       C      0.839000000000     0.806500000000     0.839000000000     0          
C3       C      0.817250000000     0.817250000000     0.849700000000     0          
H1       H      0.809900000000     0.809900000000     0.864000000000     0          
O1       O      0.973900000000     0.591700000000     0.871550000000     0          
C3       C      0.932750000000     0.567250000000     0.849700000000     0          
H1       H      0.940100000000     0.559900000000     0.864000000000     0          
O1       O      0.658300000000     0.723900000000     0.871550000000     0          
C1       C      0.648400000000     0.715650000000     0.851600000000     0          
C2       C      0.661000000000     0.693500000000     0.839000000000     0          
C3       C      0.682750000000     0.682750000000     0.849700000000     0          
H1       H      0.690100000000     0.690100000000     0.864000000000     0          
O1       O      0.878450000000     0.776100000000     0.591700000000     0          
C1       C      0.898400000000     0.784350000000     0.601600000000     0          
C2       C      0.911000000000     0.806500000000     0.589000000000     0          
O1       O      0.878450000000     0.723900000000     0.908300000000     0          
C1       C      0.898400000000     0.715650000000     0.898400000000     0          
C2       C      0.911000000000     0.693500000000     0.911000000000     0          
O1       O      0.526100000000     0.628450000000     0.908300000000     0          
C3       C      0.567250000000     0.650300000000     0.932750000000     0          
H1       H      0.559900000000     0.636000000000     0.940100000000     0          
O1       O      0.621550000000     0.776100000000     0.908300000000     0          
C1       C      0.601600000000     0.784350000000     0.898400000000     0          
C2       C      0.589000000000     0.806500000000     0.911000000000     0          
O1       O      0.973900000000     0.871550000000     0.908300000000     0          
C3       C      0.932750000000     0.849700000000     0.932750000000     0          
H1       H      0.940100000000     0.864000000000     0.940100000000     0          
O1       O      0.621550000000     0.723900000000     0.591700000000     0          
C1       C      0.601600000000     0.715650000000     0.601600000000     0          
C2       C      0.589000000000     0.693500000000     0.589000000000     0          
O1       O      0.526100000000     0.871550000000     0.591700000000     0          
C3       C      0.567250000000     0.849700000000     0.567250000000     0          
H1       H      0.559900000000     0.864000000000     0.559900000000     0          
O1       O      0.973900000000     0.628450000000     0.591700000000     0          
C3       C      0.932750000000     0.650300000000     0.567250000000     0          
H1       H      0.940100000000     0.636000000000     0.559900000000     0          
Cu1      Cu     0.892650000000     0.642650000000     0.750000000000     0          
O1       O      0.908300000000     0.621550000000     0.723900000000     0          
Cu1      Cu     0.607350000000     0.642650000000     0.750000000000     0          
O1       O      0.628450000000     0.658300000000     0.723900000000     0          
C3       C      0.650300000000     0.682750000000     0.682750000000     0          
H1       H      0.636000000000     0.690100000000     0.690100000000     0          
Cu1      Cu     0.607350000000     0.857350000000     0.750000000000     0          
O1       O      0.591700000000     0.878450000000     0.723900000000     0          
Cu1      Cu     0.892650000000     0.857350000000     0.750000000000     0          
O1       O      0.871550000000     0.841700000000     0.723900000000     0          
C3       C      0.849700000000     0.817250000000     0.682750000000     0          
H1       H      0.864000000000     0.809900000000     0.690100000000     0          
O1       O      0.908300000000     0.878450000000     0.776100000000     0          
O1       O      0.871550000000     0.658300000000     0.776100000000     0          
C3       C      0.849700000000     0.682750000000     0.817250000000     0          
H1       H      0.864000000000     0.690100000000     0.809900000000     0          
O1       O      0.591700000000     0.621550000000     0.776100000000     0          
O1       O      0.628450000000     0.841700000000     0.776100000000     0          
C3       C      0.650300000000     0.817250000000     0.817250000000     0          
H1       H      0.636000000000     0.809900000000     0.809900000000     0          
Cu1      Cu     0.750000000000     0.642650000000     0.892650000000     0          
O1       O      0.723900000000     0.658300000000     0.871550000000     0          
C1       C      0.715650000000     0.648400000000     0.851600000000     0          
C2       C      0.693500000000     0.661000000000     0.839000000000     0          
Cu1      Cu     0.607350000000     0.500000000000     0.892650000000     0          
O1       O      0.591700000000     0.973900000000     0.871550000000     0          
Cu1      Cu     0.750000000000     0.857350000000     0.892650000000     0          
O1       O      0.776100000000     0.841700000000     0.871550000000     0          
C1       C      0.784350000000     0.851600000000     0.851600000000     0          
C2       C      0.806500000000     0.839000000000     0.839000000000     0          
Cu1      Cu     0.892650000000     0.500000000000     0.892650000000     0          
O1       O      0.908300000000     0.526100000000     0.871550000000     0          
Cu1      Cu     0.750000000000     0.857350000000     0.607350000000     0          
O1       O      0.723900000000     0.841700000000     0.628450000000     0          
C1       C      0.715650000000     0.851600000000     0.648400000000     0          
C2       C      0.693500000000     0.839000000000     0.661000000000     0          
Cu1      Cu     0.892650000000     0.500000000000     0.607350000000     0          
O1       O      0.908300000000     0.973900000000     0.628450000000     0          
Cu1      Cu     0.750000000000     0.642650000000     0.607350000000     0          
O1       O      0.776100000000     0.658300000000     0.628450000000     0          
C1       C      0.784350000000     0.648400000000     0.648400000000     0          
C2       C      0.806500000000     0.661000000000     0.661000000000     0          
Cu1      Cu     0.607350000000     0.500000000000     0.607350000000     0          
O1       O      0.591700000000     0.526100000000     0.628450000000     0          
O1       O      0.871550000000     0.973900000000     0.908300000000     0          
C3       C      0.849700000000     0.932750000000     0.932750000000     0          
H1       H      0.864000000000     0.940100000000     0.940100000000     0          
O1       O      0.871550000000     0.526100000000     0.591700000000     0          
C3       C      0.849700000000     0.567250000000     0.567250000000     0          
H1       H      0.864000000000     0.559900000000     0.559900000000     0          
O1       O      0.723900000000     0.621550000000     0.591700000000     0          
C1       C      0.715650000000     0.601600000000     0.601600000000     0          
C2       C      0.693500000000     0.589000000000     0.589000000000     0          
O1       O      0.628450000000     0.973900000000     0.591700000000     0          
C3       C      0.650300000000     0.932750000000     0.567250000000     0          
H1       H      0.636000000000     0.940100000000     0.559900000000     0          
O1       O      0.776100000000     0.878450000000     0.591700000000     0          
C1       C      0.784350000000     0.898400000000     0.601600000000     0          
C2       C      0.806500000000     0.911000000000     0.589000000000     0          
O1       O      0.628450000000     0.526100000000     0.908300000000     0          
C3       C      0.650300000000     0.567250000000     0.932750000000     0          
H1       H      0.636000000000     0.559900000000     0.940100000000     0          
O1       O      0.723900000000     0.878450000000     0.908300000000     0          
C1       C      0.715650000000     0.898400000000     0.898400000000     0          
C2       C      0.693500000000     0.911000000000     0.911000000000     0          
O1       O      0.776100000000     0.621550000000     0.908300000000     0          
C1       C      0.784350000000     0.601600000000     0.898400000000     0          
C2       C      0.806500000000     0.589000000000     0.911000000000     0          
O1       O      0.591700000000     0.878450000000     0.776100000000     0          
O1       O      0.871550000000     0.841700000000     0.776100000000     0          
C3       C      0.849700000000     0.817250000000     0.817250000000     0          
H1       H      0.864000000000     0.809900000000     0.809900000000     0          
O1       O      0.908300000000     0.621550000000     0.776100000000     0          
O1       O      0.628450000000     0.658300000000     0.776100000000     0          
C3       C      0.650300000000     0.682750000000     0.817250000000     0          
H1       H      0.636000000000     0.690100000000     0.809900000000     0          
O1       O      0.591700000000     0.621550000000     0.723900000000     0          
O1       O      0.628450000000     0.841700000000     0.723900000000     0          
C3       C      0.650300000000     0.817250000000     0.682750000000     0          
H1       H      0.636000000000     0.809900000000     0.690100000000     0          
O1       O      0.908300000000     0.878450000000     0.723900000000     0          
O1       O      0.871550000000     0.658300000000     0.723900000000     0          
C3       C      0.849700000000     0.682750000000     0.682750000000     0          
H1       H      0.864000000000     0.690100000000     0.690100000000     0          
O1       O      0.776100000000     0.841700000000     0.628450000000     0          
C1       C      0.784350000000     0.851600000000     0.648400000000     0          
C2       C      0.806500000000     0.839000000000     0.661000000000     0          
O1       O      0.908300000000     0.526100000000     0.628450000000     0          
O1       O      0.723900000000     0.658300000000     0.628450000000     0          
C1       C      0.715650000000     0.648400000000     0.648400000000     0          
C2       C      0.693500000000     0.661000000000     0.661000000000     0          
O1       O      0.591700000000     0.973900000000     0.628450000000     0          
O1       O      0.776100000000     0.658300000000     0.871550000000     0          
C1       C      0.784350000000     0.648400000000     0.851600000000     0          
C2       C      0.806500000000     0.661000000000     0.839000000000     0          
O1       O      0.591700000000     0.526100000000     0.871550000000     0          
O1       O      0.723900000000     0.841700000000     0.871550000000     0          
C1       C      0.715650000000     0.851600000000     0.851600000000     0          
C2       C      0.693500000000     0.839000000000     0.839000000000     0          
O1       O      0.908300000000     0.973900000000     0.871550000000     0          
O1       O      0.628450000000     0.526100000000     0.591700000000     0          
C3       C      0.650300000000     0.567250000000     0.567250000000     0          
H1       H      0.636000000000     0.559900000000     0.559900000000     0          
O1       O      0.628450000000     0.973900000000     0.908300000000     0          
C3       C      0.650300000000     0.932750000000     0.932750000000     0          
H1       H      0.636000000000     0.940100000000     0.940100000000     0          
O1       O      0.776100000000     0.878450000000     0.908300000000     0          
C1       C      0.784350000000     0.898400000000     0.898400000000     0          
C2       C      0.806500000000     0.911000000000     0.911000000000     0          
O1       O      0.871550000000     0.526100000000     0.908300000000     0          
C3       C      0.849700000000     0.567250000000     0.932750000000     0          
H1       H      0.864000000000     0.559900000000     0.940100000000     0          
O1       O      0.723900000000     0.621550000000     0.908300000000     0          
C1       C      0.715650000000     0.601600000000     0.898400000000     0          
C2       C      0.693500000000     0.589000000000     0.911000000000     0          
O1       O      0.871550000000     0.973900000000     0.591700000000     0          
C3       C      0.849700000000     0.932750000000     0.567250000000     0          
H1       H      0.864000000000     0.940100000000     0.559900000000     0          
O1       O      0.776100000000     0.621550000000     0.591700000000     0          
C1       C      0.784350000000     0.601600000000     0.601600000000     0          
C2       C      0.806500000000     0.589000000000     0.589000000000     0          
O1       O      0.723900000000     0.878450000000     0.591700000000     0          
C1       C      0.715650000000     0.898400000000     0.601600000000     0          
C2       C      0.693500000000     0.911000000000     0.589000000000     0          
Cu1      Cu     0.892650000000     0.892650000000     0.500000000000     0          
O1       O      0.908300000000     0.871550000000     0.973900000000     0          
Cu1      Cu     0.607350000000     0.892650000000     0.500000000000     0          
O1       O      0.628450000000     0.908300000000     0.973900000000     0          
Cu1      Cu     0.607350000000     0.607350000000     0.500000000000     0          
O1       O      0.591700000000     0.628450000000     0.973900000000     0          
Cu1      Cu     0.892650000000     0.607350000000     0.500000000000     0          
O1       O      0.871550000000     0.591700000000     0.973900000000     0          
O1       O      0.908300000000     0.628450000000     0.526100000000     0          
O1       O      0.871550000000     0.908300000000     0.526100000000     0          
O1       O      0.591700000000     0.871550000000     0.526100000000     0          
O1       O      0.628450000000     0.591700000000     0.526100000000     0          
Cu1      Cu     0.750000000000     0.892650000000     0.642650000000     0          
O1       O      0.723900000000     0.908300000000     0.621550000000     0          
Cu1      Cu     0.607350000000     0.750000000000     0.642650000000     0          
O1       O      0.591700000000     0.723900000000     0.621550000000     0          
Cu1      Cu     0.750000000000     0.607350000000     0.642650000000     0          
O1       O      0.776100000000     0.591700000000     0.621550000000     0          
Cu1      Cu     0.892650000000     0.750000000000     0.642650000000     0          
O1       O      0.908300000000     0.776100000000     0.621550000000     0          
Cu1      Cu     0.750000000000     0.607350000000     0.857350000000     0          
O1       O      0.723900000000     0.591700000000     0.878450000000     0          
Cu1      Cu     0.892650000000     0.750000000000     0.857350000000     0          
O1       O      0.908300000000     0.723900000000     0.878450000000     0          
Cu1      Cu     0.750000000000     0.892650000000     0.857350000000     0          
O1       O      0.776100000000     0.908300000000     0.878450000000     0          
Cu1      Cu     0.607350000000     0.750000000000     0.857350000000     0          
O1       O      0.591700000000     0.776100000000     0.878450000000     0          
O1       O      0.871550000000     0.723900000000     0.658300000000     0          
O1       O      0.871550000000     0.776100000000     0.841700000000     0          
O1       O      0.723900000000     0.871550000000     0.841700000000     0          
O1       O      0.628450000000     0.723900000000     0.841700000000     0          
O1       O      0.776100000000     0.628450000000     0.841700000000     0          
O1       O      0.628450000000     0.776100000000     0.658300000000     0          
O1       O      0.723900000000     0.628450000000     0.658300000000     0          
O1       O      0.776100000000     0.871550000000     0.658300000000     0          
O1       O      0.591700000000     0.628450000000     0.526100000000     0          
O1       O      0.871550000000     0.591700000000     0.526100000000     0          
O1       O      0.908300000000     0.871550000000     0.526100000000     0          
O1       O      0.628450000000     0.908300000000     0.526100000000     0          
O1       O      0.591700000000     0.871550000000     0.973900000000     0          
O1       O      0.628450000000     0.591700000000     0.973900000000     0          
O1       O      0.908300000000     0.628450000000     0.973900000000     0          
O1       O      0.871550000000     0.908300000000     0.973900000000     0          
O1       O      0.776100000000     0.591700000000     0.878450000000     0          
O1       O      0.908300000000     0.776100000000     0.878450000000     0          
O1       O      0.723900000000     0.908300000000     0.878450000000     0          
O1       O      0.591700000000     0.723900000000     0.878450000000     0          
O1       O      0.776100000000     0.908300000000     0.621550000000     0          
O1       O      0.591700000000     0.776100000000     0.621550000000     0          
O1       O      0.723900000000     0.591700000000     0.621550000000     0          
O1       O      0.908300000000     0.723900000000     0.621550000000     0          
O1       O      0.628450000000     0.776100000000     0.841700000000     0          
O1       O      0.628450000000     0.723900000000     0.658300000000     0          
O1       O      0.776100000000     0.628450000000     0.658300000000     0          
O1       O      0.871550000000     0.776100000000     0.658300000000     0          
O1       O      0.723900000000     0.871550000000     0.658300000000     0          
O1       O      0.871550000000     0.723900000000     0.841700000000     0          
O1       O      0.776100000000     0.871550000000     0.841700000000     0          
O1       O      0.723900000000     0.628450000000     0.841700000000     0          


