#file was created using PrimitiveToCubic.py 
#inpcif = indexed_1.cif 
_audit_author_name 'Shivam Parashar'

_cell_length_a    72.205
_cell_length_b    72.205
_cell_length_c    72.205
_cell_angle_alpha 90
_cell_angle_beta  90
_cell_angle_gamma 90

_symmetry_cell_setting          cubic
_symmetry_space_group_name_Hall 'P 1'
_symmetry_space_group_name_H-M  'P 1'
_symmetry_Int_Tables_number     1

loop_
_symmetry_equiv_pos_as_xyz
        'x,y,z'
        'x+1/2, y+1/2, z    '
        'x+1/2, y    , z+1/2'
        'x    , y+1/2, z+1/2'

loop_
_atom_site_label
_atom_site_type_symbol
_atom_site_fract_x
_atom_site_fract_y
_atom_site_fract_z
Zn1      Zn       0.599477   0.541089   0.341167  
Zn2      Zn       0.647719   0.590109   0.29299   
Zn3      Zn       0.692005   0.540514   0.248963  
O1       O        0.636537   0.526087   0.342283  
O2       O        0.614378   0.578489   0.345779  
O3       O        0.632188   0.595626   0.328721  
N1       N        0.592742   0.51568    0.333299  
N2       N        0.575564   0.553548   0.34612   
N3       N        0.61245    0.541457   0.36583   
N5       N        0.612453   0.55237    0.31927   
N6       N        0.622993   0.581724   0.331243  
N7       N        0.630097   0.5702     0.300795  
N8       N        0.635586   0.613571   0.287527  
N9       N        0.669684   0.596465   0.308237  
N11      N        0.656284   0.57962    0.269477  
N12      N        0.672504   0.559415   0.251842  
N13      N        0.684345   0.515704   0.257418  
N14      N        0.712275   0.549208   0.265358  
N15      N        0.201883   0.038258   0.223686  
C2       C        0.578636   0.509706   0.321783  
C3       C        0.566537   0.519697   0.311734  
H3       H        0.566692   0.532903   0.311806  
C4       C        0.554228   0.509905   0.301626  
H4       H        0.545301   0.516307   0.294401  
C6       C        0.560466   0.546706   0.35594   
C7       C        0.557779   0.530352   0.365517  
H7       H        0.566903   0.520904   0.365504  
C8       C        0.541274   0.528091   0.375201  
H8       H        0.539301   0.517002   0.382     
C9       C        0.605111   0.548809   0.382059  
H9       H        0.592795   0.5531     0.383605  
C11      C        0.614855   0.543261   0.303016  
H11      H        0.609805   0.531505   0.300003  
C12      C        0.621896   0.568322   0.316912  
C13      C        0.62574    0.553773   0.291622  
H13      H        0.629705   0.550498   0.279502  
C15      C        0.640756   0.626858   0.275376  
C16      C        0.156177   0.128689   0.264404  
H16      H        0.165602   0.119506   0.264597  
C17      C        0.157831   0.144268   0.252997  
H17      H        0.168301   0.145504   0.2452    
C20      C        0.671071   0.568352   0.268053  
H20      H        0.679803   0.566903   0.277807  
C21      C        0.64716    0.577161   0.252664  
C26      C        0.657201   0.564848   0.241708  
C28      C        0.675675   0.509811   0.273751  
C29      C        0.668081   0.519743   0.287675  
H29      H        0.667897   0.532902   0.2876    
C30      C        0.660775   0.509712   0.301858  
H30      H        0.655501   0.516094   0.312105  
C32      C        0.221696   0.065634   0.264901  
C36      C        0.194838   0.029289   0.208487  
Zn1      Zn       0.400531   0.458901   0.341172  
Zn2      Zn       0.352272   0.409888   0.292979  
Zn3      Zn       0.307995   0.459489   0.24896   
O1       O        0.363463   0.473909   0.342284  
O2       O        0.385636   0.421505   0.34578   
O3       O        0.367809   0.404383   0.328725  
N1       N        0.407261   0.484319   0.333284  
N2       N        0.424432   0.44645    0.346121  
N3       N        0.387549   0.458547   0.365832  
N5       N        0.387546   0.447629   0.319265  
N6       N        0.376999   0.418285   0.331236  
N7       N        0.369902   0.429791   0.300791  
N8       N        0.364422   0.386432   0.287526  
N9       N        0.330321   0.403538   0.308241  
N11      N        0.343725   0.420375   0.269468  
N12      N        0.3275     0.440587   0.251841  
N13      N        0.31566    0.484301   0.257425  
N14      N        0.287722   0.450782   0.265364  
N15      N        0.298109   0.461741   0.223694  
C2       C        0.421358   0.490293   0.321786  
C3       C        0.433463   0.480303   0.31174   
H3       H        0.433293   0.4671     0.3118    
C4       C        0.445785   0.490093   0.301636  
H4       H        0.454704   0.483699   0.294398  
C6       C        0.43953    0.453292   0.355947  
C7       C        0.442213   0.469644   0.365507  
H7       H        0.433106   0.479098   0.365494  
C8       C        0.458734   0.471903   0.375196  
H8       H        0.460697   0.483003   0.381997  
C9       C        0.394891   0.451192   0.38206   
H9       H        0.407205   0.446903   0.383607  
C11      C        0.385134   0.456738   0.303007  
H11      H        0.390198   0.468503   0.299997  
C12      C        0.378106   0.431678   0.316903  
C13      C        0.374258   0.446227   0.291621  
H13      H        0.370303   0.449499   0.279496  
C15      C        0.359235   0.373138   0.275378  
C16      C        0.343816   0.371312   0.264394  
H16      H        0.334399   0.380505   0.264602  
C17      C        0.342167   0.355737   0.252999  
H17      H        0.331704   0.354499   0.245208  
C20      C        0.328932   0.431642   0.268052  
H20      H        0.320202   0.433093   0.277805  
C21      C        0.352834   0.422841   0.252665  
C26      C        0.342796   0.435156   0.241701  
C28      C        0.324318   0.49019    0.273747  
C29      C        0.331924   0.480253   0.287679  
H29      H        0.3321     0.467092   0.2876    
C30      C        0.339233   0.490286   0.301855  
H30      H        0.3445     0.483896   0.312103  
C32      C        0.278301   0.434361   0.264902  
C36      C        0.305161   0.470717   0.20849   
Zn1      Zn       0.400532   0.541093   0.65883   
Zn2      Zn       0.352281   0.590109   0.70702   
Zn3      Zn       0.307997   0.540507   0.75104   
O1       O        0.363457   0.526083   0.657721  
O2       O        0.385628   0.578491   0.654219  
O3       O        0.367815   0.595621   0.671287  
N1       N        0.407263   0.515685   0.666708  
N2       N        0.424433   0.553547   0.653878  
N3       N        0.38755    0.541461   0.634175  
N5       N        0.387553   0.55237    0.680732  
N6       N        0.377005   0.581719   0.668756  
N7       N        0.369895   0.570204   0.699211  
N8       N        0.364416   0.61357    0.712487  
N9       N        0.330322   0.596475   0.691762  
N11      N        0.343716   0.579627   0.730527  
N12      N        0.327502   0.559406   0.748162  
N13      N        0.315664   0.515693   0.742577  
N14      N        0.287723   0.549206   0.734644  
N15      N        0.298109   0.038264   0.276308  
C2       C        0.421367   0.509713   0.678223  
C3       C        0.433455   0.519699   0.688255  
H3       H        0.433298   0.532897   0.688198  
C4       C        0.445776   0.509915   0.698372  
H4       H        0.454701   0.5163     0.705599  
C6       C        0.439531   0.546717   0.644059  
C7       C        0.442223   0.530354   0.634491  
H7       H        0.433098   0.520901   0.634503  
C8       C        0.45873    0.528097   0.6248    
H8       H        0.460702   0.516997   0.617999  
C9       C        0.394894   0.548804   0.617941  
H9       H        0.407192   0.553103   0.616403  
C11      C        0.385146   0.543259   0.696992  
H11      H        0.390196   0.531498   0.699998  
C12      C        0.378114   0.568321   0.683095  
C13      C        0.374262   0.553782   0.708386  
H13      H        0.370297   0.550502   0.720499  
C15      C        0.359239   0.626855   0.724625  
C16      C        0.343814   0.128687   0.235595  
H16      H        0.334402   0.119502   0.235398  
C17      C        0.342174   0.144273   0.246999  
H17      H        0.331694   0.1455     0.254801  
C20      C        0.328929   0.568361   0.731941  
H20      H        0.320195   0.566899   0.7222    
C21      C        0.352841   0.577159   0.747331  
C26      C        0.342797   0.564856   0.758303  
C28      C        0.324313   0.50981    0.726249  
C29      C        0.33192    0.519745   0.712319  
H29      H        0.332102   0.532907   0.712397  
C30      C        0.339229   0.509708   0.698148  
H30      H        0.344493   0.516097   0.687901  
C32      C        0.278293   0.065643   0.235102  
C36      C        0.305156   0.029292   0.291509  
Zn1      Zn       0.599468   0.458908   0.658832  
Zn2      Zn       0.647718   0.409892   0.707025  
Zn3      Zn       0.692001   0.459497   0.751042  
O1       O        0.636544   0.473904   0.657722  
O2       O        0.614367   0.421505   0.654223  
O3       O        0.632185   0.404386   0.671283  
N1       N        0.592731   0.484322   0.666714  
N2       N        0.57556    0.446444   0.653884  
N3       N        0.612448   0.458541   0.634168  
N5       N        0.612446   0.447628   0.680728  
N6       N        0.623002   0.418278   0.66877   
N7       N        0.630096   0.429795   0.699207  
N8       N        0.635586   0.386436   0.712481  
N9       N        0.669678   0.403536   0.691758  
N11      N        0.656283   0.420379   0.73054   
N12      N        0.672503   0.440593   0.748167  
N13      N        0.684339   0.484292   0.742581  
N14      N        0.712282   0.450787   0.734643  
N15      N        0.201882   0.461736   0.276308  
C2       C        0.578637   0.490293   0.678214  
C3       C        0.566542   0.480298   0.688268  
H3       H        0.566695   0.467103   0.688203  
C4       C        0.554221   0.490088   0.698378  
H4       H        0.545299   0.483707   0.7056    
C6       C        0.560471   0.453291   0.64406   
C7       C        0.557782   0.469656   0.634491  
H7       H        0.566892   0.479103   0.634504  
C8       C        0.541271   0.471899   0.624805  
H8       H        0.539298   0.482994   0.617999  
C9       C        0.605109   0.451209   0.617938  
H9       H        0.592797   0.446893   0.616398  
C11      C        0.614862   0.456749   0.696991  
H11      H        0.609798   0.4685     0.700008  
C12      C        0.621892   0.431671   0.683092  
C13      C        0.625738   0.446225   0.708376  
H13      H        0.629693   0.449498   0.720498  
C15      C        0.640759   0.373137   0.724625  
C16      C        0.156176   0.371312   0.235603  
H16      H        0.1656     0.380499   0.235406  
C17      C        0.157831   0.355724   0.247     
H17      H        0.168295   0.354501   0.254803  
C20      C        0.671065   0.431642   0.731949  
H20      H        0.679802   0.433098   0.722208  
C21      C        0.647163   0.422836   0.747336  
C26      C        0.657203   0.435147   0.758293  
C28      C        0.67568    0.490191   0.726243  
C29      C        0.66808    0.480264   0.712314  
H29      H        0.667899   0.467096   0.712399  
C30      C        0.660773   0.490285   0.698141  
H30      H        0.655495   0.483902   0.687895  
C32      C        0.221706   0.434356   0.235097  
C36      C        0.194837   0.47071    0.291502  
Zn1      Zn       0.34117    0.599466   0.541092  
Zn2      Zn       0.292973   0.647717   0.590105  
Zn3      Zn       0.248963   0.692004   0.540511  
O1       O        0.342274   0.636541   0.52609   
O2       O        0.345778   0.614362   0.578491  
O3       O        0.328723   0.63219    0.595624  
N1       N        0.333291   0.592732   0.515685  
N2       N        0.34612    0.57556    0.55356   
N3       N        0.365831   0.612453   0.541463  
N5       N        0.319273   0.612449   0.552376  
N6       N        0.331231   0.623      0.581722  
N7       N        0.300783   0.630098   0.570198  
N8       N        0.287524   0.63558    0.613563  
N9       N        0.308239   0.669681   0.596463  
N11      N        0.269469   0.656278   0.579625  
N12      N        0.251844   0.672496   0.559411  
N13      N        0.257415   0.684338   0.515703  
N14      N        0.265354   0.712277   0.549205  
N15      N        0.223684   0.201886   0.03826   
C2       C        0.321786   0.578636   0.509705  
C3       C        0.311738   0.56654    0.519706  
H3       H        0.3118     0.566699   0.532904  
C4       C        0.301622   0.554221   0.509912  
H4       H        0.294407   0.545302   0.516304  
C6       C        0.355942   0.560472   0.546711  
C7       C        0.365511   0.557781   0.530345  
H7       H        0.365495   0.566894   0.520899  
C8       C        0.375202   0.541263   0.528099  
H8       H        0.381992   0.5393     0.516999  
C9       C        0.382058   0.605119   0.548796  
H9       H        0.383598   0.592799   0.553106  
C11      C        0.303009   0.614869   0.543258  
H11      H        0.299992   0.6098     0.531502  
C12      C        0.316903   0.621888   0.568321  
C13      C        0.291619   0.625741   0.553774  
H13      H        0.279494   0.629699   0.550501  
C15      C        0.275373   0.640755   0.626858  
C16      C        0.264394   0.156176   0.128684  
H16      H        0.264602   0.165593   0.119502  
C17      C        0.252999   0.157826   0.14427   
H17      H        0.245201   0.168301   0.145508  
C20      C        0.268046   0.67107    0.568358  
H20      H        0.277801   0.679793   0.566902  
C21      C        0.252659   0.647165   0.577162  
C26      C        0.2417     0.657206   0.564849  
C28      C        0.273758   0.675679   0.509809  
C29      C        0.287678   0.668086   0.519733  
H29      H        0.287599   0.667901   0.532903  
C30      C        0.301856   0.660773   0.509712  
H30      H        0.312104   0.6555     0.516102  
C32      C        0.264902   0.221705   0.065643  
C36      C        0.208497   0.194836   0.029288  
Zn1      Zn       0.341176   0.400528   0.45891   
Zn2      Zn       0.292982   0.352281   0.409893  
Zn3      Zn       0.248958   0.307994   0.459488  
O1       O        0.342277   0.363454   0.473911  
O2       O        0.345779   0.385633   0.421511  
O3       O        0.328723   0.367804   0.404378  
N1       N        0.333297   0.407261   0.484318  
N2       N        0.346113   0.424442   0.446454  
N3       N        0.365827   0.387545   0.458536  
N5       N        0.319275   0.387543   0.447628  
N6       N        0.331241   0.377      0.418274  
N7       N        0.300791   0.369898   0.429802  
N8       N        0.287521   0.364415   0.386438  
N9       N        0.308237   0.330325   0.403528  
N11      N        0.269468   0.343721   0.420373  
N12      N        0.25184    0.327497   0.440591  
N13      N        0.257416   0.315659   0.484296  
N14      N        0.265356   0.287721   0.450792  
N15      N        0.223691   0.298109   0.461734  
C2       C        0.321777   0.421367   0.490287  
C3       C        0.311735   0.433457   0.480293  
H3       H        0.311804   0.433293   0.4671    
C4       C        0.301632   0.445775   0.490088  
H4       H        0.294398   0.454707   0.483702  
C6       C        0.355942   0.43953    0.453283  
C7       C        0.365509   0.442224   0.469647  
H7       H        0.365498   0.433101   0.479103  
C8       C        0.375197   0.458732   0.471902  
H8       H        0.381998   0.4607     0.482998  
C9       C        0.382059   0.394889   0.451192  
H9       H        0.383592   0.407195   0.446896  
C11      C        0.303016   0.385143   0.456746  
H11      H        0.300003   0.390194   0.4685    
C12      C        0.316915   0.378106   0.431681  
C13      C        0.291623   0.374258   0.446223  
H13      H        0.279505   0.370295   0.449501  
C15      C        0.275379   0.359237   0.373146  
C16      C        0.264398   0.343818   0.37131   
H16      H        0.264597   0.334401   0.380492  
C17      C        0.252999   0.342171   0.355721  
H17      H        0.245199   0.331696   0.354503  
C20      C        0.268058   0.328929   0.431638  
H20      H        0.277801   0.320197   0.433104  
C21      C        0.252663   0.352847   0.422841  
C26      C        0.241703   0.342793   0.435147  
C28      C        0.273744   0.324319   0.490189  
C29      C        0.287683   0.33192    0.480257  
H29      H        0.287604   0.332099   0.467092  
C30      C        0.301855   0.339222   0.490289  
H30      H        0.312096   0.344494   0.4839    
C32      C        0.264893   0.278301   0.43436   
C36      C        0.208495   0.305154   0.47071   
Zn1      Zn       0.65883    0.400526   0.541095  
Zn2      Zn       0.707016   0.352275   0.59011   
Zn3      Zn       0.751033   0.308      0.540509  
O1       O        0.657721   0.363455   0.526088  
O2       O        0.654224   0.385631   0.578495  
O3       O        0.671283   0.367802   0.595619  
N1       N        0.666713   0.40726    0.515677  
N2       N        0.653873   0.424441   0.553552  
N3       N        0.634166   0.387553   0.541456  
N5       N        0.68073    0.387549   0.552369  
N6       N        0.668757   0.377005   0.581715  
N7       N        0.699204   0.369896   0.570198  
N8       N        0.712483   0.364419   0.613574  
N9       N        0.69176    0.330327   0.596468  
N11      N        0.730528   0.343726   0.579622  
N12      N        0.748159   0.327502   0.559416  
N13      N        0.742584   0.315652   0.5157    
N14      N        0.734638   0.287717   0.549217  
N15      N        0.276307   0.29811    0.038262  
C2       C        0.67822    0.421355   0.50971   
C3       C        0.688267   0.433459   0.519699  
H3       H        0.688199   0.433298   0.532904  
C4       C        0.698372   0.445777   0.509907  
H4       H        0.705607   0.4547     0.516301  
C6       C        0.644058   0.439528   0.546711  
C7       C        0.634484   0.442217   0.530351  
H7       H        0.634502   0.433104   0.520896  
C8       C        0.624804   0.458732   0.528094  
H8       H        0.618003   0.4607     0.517     
C9       C        0.617942   0.394889   0.548808  
H9       H        0.616404   0.407202   0.553105  
C11      C        0.696988   0.38514    0.543261  
H11      H        0.700004   0.390201   0.531501  
C12      C        0.683095   0.378103   0.568317  
C13      C        0.708376   0.374268   0.553781  
H13      H        0.720502   0.370303   0.550499  
C15      C        0.72462    0.359238   0.626864  
C16      C        0.235598   0.343826   0.128689  
H16      H        0.235397   0.334407   0.119501  
C17      C        0.246998   0.342174   0.144267  
H17      H        0.254798   0.331697   0.145499  
C20      C        0.731951   0.328934   0.568364  
H20      H        0.722191   0.320196   0.566898  
C21      C        0.747338   0.35284    0.577167  
C26      C        0.758299   0.342806   0.564853  
C28      C        0.726251   0.324321   0.509812  
C29      C        0.712315   0.331922   0.51974   
H29      H        0.712401   0.332096   0.532905  
C30      C        0.698139   0.339233   0.509708  
H30      H        0.687903   0.344492   0.516102  
C32      C        0.235104   0.278294   0.065638  
C36      C        0.291512   0.305164   0.029288  
Zn1      Zn       0.658833   0.59947    0.458904  
Zn2      Zn       0.707019   0.647715   0.409895  
Zn3      Zn       0.751044   0.691999   0.459488  
O1       O        0.657717   0.636539   0.473915  
O2       O        0.654228   0.614375   0.421515  
O3       O        0.67128    0.632194   0.404381  
N1       N        0.666708   0.592738   0.484322  
N2       N        0.653884   0.575555   0.446448  
N3       N        0.634173   0.612446   0.458542  
N5       N        0.680731   0.61245    0.447628  
N6       N        0.668756   0.622997   0.418279  
N7       N        0.699211   0.630096   0.429806  
N8       N        0.71248    0.635577   0.386426  
N9       N        0.691757   0.669678   0.403523  
N11      N        0.730533   0.656282   0.420386  
N12      N        0.748166   0.672505   0.440593  
N13      N        0.742582   0.684347   0.484297  
N14      N        0.734642   0.712273   0.45079   
N15      N        0.276313   0.201889   0.461747  
C2       C        0.678215   0.578638   0.490293  
C3       C        0.688257   0.566541   0.480298  
H3       H        0.688197   0.566693   0.467101  
C4       C        0.698371   0.554223   0.490088  
H4       H        0.705604   0.5453     0.483696  
C6       C        0.644055   0.560467   0.45329   
C7       C        0.634493   0.557775   0.469654  
H7       H        0.634502   0.566898   0.479098  
C8       C        0.624795   0.54127    0.4719    
H8       H        0.618005   0.539297   0.483     
C9       C        0.617946   0.605117   0.451201  
H9       H        0.616395   0.592802   0.446907  
C11      C        0.696985   0.614855   0.45674   
H11      H        0.699998   0.609801   0.468492  
C12      C        0.683096   0.621893   0.431682  
C13      C        0.708379   0.62574    0.446228  
H13      H        0.720497   0.629699   0.449495  
C15      C        0.724617   0.640758   0.373136  
C16      C        0.235594   0.156181   0.371312  
H16      H        0.235406   0.165602   0.380498  
C17      C        0.247007   0.157832   0.355735  
H17      H        0.254797   0.168301   0.354492  
C20      C        0.731942   0.671072   0.431645  
H20      H        0.722197   0.679802   0.4331    
C21      C        0.747338   0.647164   0.422845  
C26      C        0.758295   0.657201   0.435155  
C28      C        0.726245   0.675677   0.490186  
C29      C        0.712318   0.668082   0.480251  
H29      H        0.712405   0.667894   0.467101  
C30      C        0.698148   0.660768   0.490287  
H30      H        0.687898   0.655497   0.483905  
C32      C        0.235096   0.221695   0.434362  
C36      C        0.29151    0.194843   0.470713  
Zn1      Zn       0.541091   0.341173   0.599469  
Zn2      Zn       0.590112   0.29298    0.647721  
Zn3      Zn       0.540513   0.248953   0.692003  
O1       O        0.52609    0.342273   0.636543  
O2       O        0.578487   0.345782   0.614368  
O3       O        0.595616   0.328724   0.63219   
N1       N        0.515684   0.333293   0.592738  
N2       N        0.553548   0.346118   0.575565  
N3       N        0.541464   0.36583    0.612457  
N5       N        0.552367   0.319267   0.612444  
N6       N        0.581725   0.331238   0.622997  
N7       N        0.570194   0.300791   0.630098  
N8       N        0.613566   0.287513   0.63558   
N9       N        0.596468   0.30824    0.669674  
N11      N        0.579625   0.269474   0.656283  
N12      N        0.559408   0.251843   0.672504  
N13      N        0.515703   0.257417   0.684341  
N14      N        0.54921    0.265358   0.712283  
N15      N        0.038262   0.223695   0.201891  
C2       C        0.509717   0.321776   0.578636  
C3       C        0.519702   0.311739   0.566541  
H3       H        0.532899   0.311797   0.566699  
C4       C        0.509915   0.301629   0.554225  
H4       H        0.516296   0.294401   0.545294  
C6       C        0.546709   0.355947   0.560467  
C7       C        0.530347   0.365514   0.557775  
H7       H        0.520893   0.3655     0.566897  
C8       C        0.528104   0.375198   0.541275  
H8       H        0.517005   0.381993   0.539298  
C9       C        0.548808   0.382064   0.605115  
H9       H        0.5531     0.383599   0.592807  
C11      C        0.543266   0.303005   0.614859  
H11      H        0.531502   0.299995   0.609799  
C12      C        0.568315   0.316913   0.621888  
C13      C        0.553777   0.291618   0.625737  
H13      H        0.550502   0.279502   0.629705  
C15      C        0.626855   0.275377   0.640763  
C16      C        0.12869    0.264394   0.156179  
H16      H        0.119504   0.264606   0.165603  
C17      C        0.144272   0.253007   0.157831  
H17      H        0.145496   0.245199   0.168303  
C20      C        0.568366   0.268049   0.671066  
H20      H        0.566902   0.277798   0.679806  
C21      C        0.577158   0.252668   0.647157  
C26      C        0.564853   0.2417     0.657204  
C28      C        0.50981    0.27375    0.675686  
C29      C        0.519747   0.287681   0.668082  
H29      H        0.532898   0.287611   0.667898  
C30      C        0.509709   0.301859   0.660779  
H30      H        0.516093   0.312095   0.655498  
C32      C        0.065634   0.264899   0.221699  
C36      C        0.029285   0.208495   0.194841  
Zn1      Zn       0.458909   0.34117    0.400536  
Zn2      Zn       0.409887   0.292981   0.352283  
Zn3      Zn       0.459496   0.248955   0.307996  
O1       O        0.473911   0.34228    0.363466  
O2       O        0.421508   0.345772   0.385632  
O3       O        0.404385   0.328713   0.367809  
N1       N        0.484321   0.333284   0.407267  
N2       N        0.446445   0.346116   0.424441  
N3       N        0.458546   0.365827   0.387552  
N5       N        0.447631   0.319269   0.387554  
N6       N        0.418281   0.331231   0.377002  
N7       N        0.429797   0.300787   0.3699    
N8       N        0.386436   0.287524   0.364419  
N9       N        0.403532   0.308245   0.330321  
N11      N        0.420375   0.269465   0.343717  
N12      N        0.440586   0.25184    0.327497  
N13      N        0.4843     0.25742    0.315669  
N14      N        0.450783   0.265357   0.287715  
N15      N        0.461741   0.223681   0.298112  
C2       C        0.490287   0.321783   0.421353  
C3       C        0.480296   0.311735   0.433458  
H3       H        0.467093   0.311798   0.433297  
C4       C        0.490081   0.301628   0.445778  
H4       H        0.483704   0.294396   0.454694  
C6       C        0.453293   0.35594    0.43953   
C7       C        0.469647   0.365516   0.442215  
H7       H        0.479096   0.365499   0.433105  
C8       C        0.471897   0.375203   0.458734  
H8       H        0.482996   0.381995   0.460697  
C9       C        0.451207   0.382058   0.394884  
H9       H        0.446901   0.3836     0.407209  
C11      C        0.456742   0.303018   0.38514   
H11      H        0.468493   0.299996   0.390199  
C12      C        0.43168    0.316902   0.378111  
C13      C        0.446222   0.291626   0.374262  
H13      H        0.449499   0.279501   0.370307  
C15      C        0.373132   0.275384   0.359245  
C16      C        0.371312   0.2644     0.343826  
H16      H        0.380498   0.264598   0.334404  
C17      C        0.355733   0.252992   0.342171  
H17      H        0.354494   0.245204   0.331704  
C20      C        0.43164    0.268051   0.328933  
H20      H        0.433094   0.277801   0.320202  
C21      C        0.422845   0.252661   0.352844  
C26      C        0.435147   0.241709   0.342799  
C28      C        0.490194   0.273748   0.324314  
C29      C        0.480265   0.287686   0.331921  
H29      H        0.467102   0.287599   0.332105  
C30      C        0.490293   0.301858   0.339234  
H30      H        0.483896   0.312105   0.344499  
C32      C        0.434365   0.264901   0.2783    
C36      C        0.470708   0.208491   0.305154  
Zn1      Zn       0.541094   0.65883    0.400524  
Zn2      Zn       0.590105   0.707014   0.352281  
Zn3      Zn       0.540511   0.751042   0.307998  
O1       O        0.526091   0.657715   0.363465  
O2       O        0.578498   0.654218   0.385628  
O3       O        0.595618   0.671279   0.367803  
N1       N        0.515678   0.666705   0.40726   
N2       N        0.553548   0.653879   0.424434  
N3       N        0.541458   0.634174   0.387555  
N5       N        0.552373   0.680732   0.387553  
N6       N        0.581718   0.668759   0.377002  
N7       N        0.570198   0.699206   0.369902  
N8       N        0.613569   0.712482   0.364421  
N9       N        0.596476   0.691759   0.330322  
N11      N        0.579615   0.730536   0.343723  
N12      N        0.559412   0.748167   0.327502  
N13      N        0.515709   0.74258    0.315657  
N14      N        0.549213   0.734634   0.287722  
N15      N        0.038256   0.276311   0.298111  
C2       C        0.509702   0.678221   0.421363  
C3       C        0.519699   0.688258   0.433457  
H3       H        0.532893   0.688199   0.433302  
C4       C        0.509911   0.698368   0.445774  
H4       H        0.516307   0.705601   0.4547    
C6       C        0.546704   0.644055   0.439527  
C7       C        0.530346   0.634488   0.442219  
H7       H        0.520902   0.6345     0.433099  
C8       C        0.5281     0.624794   0.458729  
H8       H        0.517001   0.618003   0.460702  
C9       C        0.548808   0.617945   0.394892  
H9       H        0.553093   0.616403   0.407206  
C11      C        0.543252   0.69699    0.385143  
H11      H        0.531497   0.700006   0.390196  
C12      C        0.568319   0.683091   0.378104  
C13      C        0.553776   0.708379   0.374263  
H13      H        0.550503   0.720503   0.370306  
C15      C        0.626859   0.724618   0.359238  
C16      C        0.128687   0.235595   0.343821  
H16      H        0.119499   0.235405   0.334394  
C17      C        0.144273   0.247      0.34217   
H17      H        0.145504   0.254804   0.331702  
C20      C        0.56836    0.731945   0.328936  
H20      H        0.566903   0.722194   0.320198  
C21      C        0.577163   0.747333   0.352839  
C26      C        0.564849   0.758292   0.3428    
C28      C        0.509809   0.726253   0.324326  
C29      C        0.519742   0.71232    0.331913  
H29      H        0.532901   0.712402   0.332105  
C30      C        0.509711   0.698148   0.33923   
H30      H        0.516095   0.687899   0.344504  
C32      C        0.065634   0.235093   0.278298  
C36      C        0.029288   0.291512   0.30516   
Zn1      Zn       0.458904   0.658833   0.599476  
Zn2      Zn       0.409886   0.707013   0.647718  
Zn3      Zn       0.459489   0.75104    0.692005  
O1       O        0.473909   0.657724   0.636545  
O2       O        0.421505   0.654224   0.614368  
O3       O        0.404379   0.671281   0.632194  
N1       N        0.484326   0.666708   0.592737  
N2       N        0.446449   0.653876   0.575564  
N3       N        0.458541   0.634169   0.612447  
N5       N        0.447626   0.680728   0.612445  
N6       N        0.418284   0.668763   0.623     
N7       N        0.429801   0.699205   0.630104  
N8       N        0.386427   0.712477   0.635576  
N9       N        0.40353    0.69176    0.669671  
N11      N        0.420383   0.730532   0.656282  
N12      N        0.440591   0.748156   0.672502  
N13      N        0.484297   0.742583   0.684343  
N14      N        0.450784   0.73464    0.712284  
N15      N        0.461736   0.276307   0.201888  
C2       C        0.490291   0.678217   0.578643  
C3       C        0.480301   0.688265   0.566539  
H3       H        0.467093   0.688201   0.566701  
C4       C        0.49009    0.698372   0.554219  
H4       H        0.483698   0.705607   0.545299  
C6       C        0.453291   0.644055   0.560471  
C7       C        0.469646   0.634484   0.557781  
H7       H        0.479107   0.634498   0.566894  
C8       C        0.471908   0.624806   0.541272  
H8       H        0.482996   0.618005   0.539299  
C9       C        0.451194   0.617942   0.605112  
H9       H        0.446896   0.616406   0.592801  
C11      C        0.456737   0.696993   0.614864  
H11      H        0.468506   0.7        0.609802  
C12      C        0.431684   0.68309    0.621893  
C13      C        0.446222   0.708384   0.625743  
H13      H        0.449505   0.720504   0.629703  
C15      C        0.373144   0.724619   0.640768  
C16      C        0.371317   0.235599   0.156182  
H16      H        0.380502   0.235403   0.165603  
C17      C        0.355736   0.246997   0.157828  
H17      H        0.354501   0.254797   0.168302  
C20      C        0.431643   0.731945   0.671067  
H20      H        0.433101   0.722191   0.679802  
C21      C        0.422842   0.74733    0.647162  
C26      C        0.435149   0.758305   0.657203  
C28      C        0.490196   0.72625    0.675685  
C29      C        0.480263   0.712322   0.668087  
H29      H        0.467095   0.712394   0.667898  
C30      C        0.490297   0.698135   0.660768  
H30      H        0.483894   0.687895   0.655496  
C32      C        0.434363   0.235102   0.221705  
C36      C        0.470711   0.29151    0.194833  
Zn1      Zn       0.541091   0.599472   0.658837  
Zn2      Zn       0.590109   0.647715   0.707017  
Zn3      Zn       0.540506   0.692001   0.751044  
O1       O        0.526086   0.636541   0.657728  
O2       O        0.578498   0.614372   0.65422   
O3       O        0.595616   0.63219    0.671285  
N1       N        0.515677   0.592742   0.666704  
N2       N        0.553546   0.57556    0.65388   
N3       N        0.541462   0.612451   0.634165  
N5       N        0.552377   0.612449   0.680724  
N6       N        0.581718   0.623004   0.668759  
N7       N        0.570194   0.6301     0.699209  
N8       N        0.613568   0.635572   0.712481  
N9       N        0.596473   0.669675   0.691755  
N11      N        0.57962    0.656286   0.730528  
N12      N        0.559403   0.672498   0.74816   
N13      N        0.515698   0.68434    0.742587  
N14      N        0.549211   0.71228    0.734643  
N15      N        0.538259   0.701888   0.776315  
C2       C        0.509703   0.57864    0.67822   
C3       C        0.519702   0.566543   0.68826   
H3       H        0.532902   0.566697   0.688205  
C4       C        0.509913   0.554223   0.698367  
H4       H        0.516305   0.545303   0.705602  
C6       C        0.546703   0.560467   0.644059  
C7       C        0.530348   0.557777   0.634488  
H7       H        0.520896   0.566899   0.634494  
C8       C        0.528095   0.541276   0.624802  
H8       H        0.517007   0.539303   0.618001  
C9       C        0.548801   0.605109   0.617946  
H9       H        0.553107   0.592806   0.616401  
C11      C        0.543258   0.614861   0.696997  
H11      H        0.531508   0.6098     0.700001  
C12      C        0.568319   0.621897   0.683086  
C13      C        0.553781   0.625747   0.70838   
H13      H        0.550498   0.629707   0.7205    
C15      C        0.626862   0.640758   0.724628  
C16      C        0.628697   0.656184   0.735604  
H16      H        0.619501   0.665601   0.735393  
C17      C        0.644278   0.657831   0.747002  
H17      H        0.645494   0.668303   0.754804  
C20      C        0.56836    0.671071   0.731941  
H20      H        0.566894   0.679798   0.722195  
C21      C        0.577164   0.647152   0.747339  
C26      C        0.564854   0.657207   0.758301  
C28      C        0.509818   0.675683   0.726251  
C29      C        0.519732   0.668083   0.712326  
H29      H        0.532899   0.667894   0.712398  
C30      C        0.509717   0.660767   0.698137  
H30      H        0.5161     0.655492   0.687899  
C32      C        0.56564    0.721703   0.735092  
C36      C        0.529292   0.694841   0.79151   
Zn1      Zn       0.458909   0.400528   0.658826  
Zn2      Zn       0.40989    0.352277   0.707018  
Zn3      Zn       0.459492   0.308002   0.751038  
O1       O        0.473903   0.363462   0.657719  
O2       O        0.421516   0.385626   0.65422   
O3       O        0.404385   0.367807   0.671275  
N1       N        0.484317   0.407256   0.666709  
N2       N        0.446455   0.424439   0.653874  
N3       N        0.458536   0.387551   0.634178  
N5       N        0.44763    0.387557   0.680728  
N6       N        0.418276   0.376999   0.668762  
N7       N        0.429797   0.369898   0.699209  
N8       N        0.386434   0.364425   0.712478  
N9       N        0.403539   0.330321   0.691761  
N11      N        0.420379   0.343719   0.730539  
N12      N        0.440591   0.327506   0.748163  
N13      N        0.484294   0.315661   0.742576  
N14      N        0.450782   0.287718   0.734638  
N15      N        0.961739   0.798111   0.776318  
C2       C        0.490293   0.421359   0.678225  
C3       C        0.480304   0.433462   0.688254  
H3       H        0.467102   0.433298   0.688202  
C4       C        0.490091   0.445778   0.698364  
H4       H        0.483696   0.454704   0.705596  
C6       C        0.453291   0.439523   0.644059  
C7       C        0.469649   0.442216   0.634491  
H7       H        0.479101   0.433104   0.634496  
C8       C        0.471895   0.458725   0.624798  
H8       H        0.483002   0.460706   0.617999  
C9       C        0.451194   0.394896   0.617941  
H9       H        0.446902   0.407202   0.616407  
C11      C        0.456742   0.385139   0.696994  
H11      H        0.468506   0.3902     0.700002  
C12      C        0.431684   0.378108   0.683087  
C13      C        0.446219   0.374259   0.708382  
H13      H        0.4495     0.37031    0.720499  
C15      C        0.373136   0.359234   0.724622  
C16      C        0.871307   0.843821   0.735603  
H16      H        0.880504   0.834402   0.735405  
C17      C        0.85573    0.842178   0.747     
H17      H        0.854498   0.831701   0.754794  
C20      C        0.431635   0.328932   0.731949  
H20      H        0.433091   0.320195   0.722198  
C21      C        0.422831   0.352835   0.747336  
C26      C        0.435146   0.342796   0.758296  
C28      C        0.490186   0.324322   0.726257  
C29      C        0.48026    0.331917   0.712316  
H29      H        0.467094   0.332101   0.712406  
C30      C        0.490292   0.339234   0.698144  
H30      H        0.4839     0.344501   0.687903  
C32      C        0.934361   0.778298   0.735101  
C36      C        0.970715   0.805168   0.791511  
Zn1      Zn       0.541085   0.400532   0.341174  
Zn2      Zn       0.590108   0.35228    0.292985  
Zn3      Zn       0.540507   0.308      0.248951  
O1       O        0.526083   0.363462   0.342284  
O2       O        0.578487   0.385628   0.345776  
O3       O        0.595621   0.367799   0.328722  
N1       N        0.515685   0.407257   0.333294  
N2       N        0.55355    0.424437   0.34612   
N3       N        0.541468   0.387551   0.365829  
N5       N        0.552364   0.38755    0.319273  
N6       N        0.581714   0.376999   0.331235  
N7       N        0.570198   0.369896   0.300791  
N8       N        0.613567   0.364423   0.28752   
N9       N        0.596471   0.330325   0.308241  
N11      N        0.57962    0.343713   0.269469  
N12      N        0.559416   0.327502   0.251836  
N13      N        0.515695   0.315666   0.257424  
N14      N        0.549212   0.287711   0.265361  
N15      N        0.538254   0.798112   0.723689  
C2       C        0.509716   0.421357   0.321779  
C3       C        0.519699   0.433454   0.311738  
H3       H        0.532901   0.433293   0.311802  
C4       C        0.509913   0.445774   0.301631  
H4       H        0.516299   0.454698   0.294392  
C6       C        0.546709   0.439535   0.355936  
C7       C        0.530356   0.44222    0.365511  
H7       H        0.520899   0.433101   0.365503  
C8       C        0.528098   0.45873    0.375207  
H8       H        0.516999   0.460693   0.381999  
C9       C        0.548796   0.394888   0.382054  
H9       H        0.553094   0.407205   0.383604  
C11      C        0.543261   0.385144   0.303014  
H11      H        0.531502   0.390195   0.3       
C12      C        0.568315   0.378107   0.316906  
C13      C        0.55378    0.374267   0.291622  
H13      H        0.550496   0.370304   0.279505  
C15      C        0.626863   0.359241   0.275388  
C16      C        0.628683   0.843817   0.764398  
H16      H        0.619497   0.834404   0.764606  
C17      C        0.644262   0.842171   0.753     
H17      H        0.645501   0.831695   0.745202  
C20      C        0.568355   0.328929   0.268055  
H20      H        0.566901   0.320199   0.277804  
C21      C        0.577158   0.352848   0.252657  
C26      C        0.564856   0.342803   0.241705  
C28      C        0.509809   0.324318   0.273744  
C29      C        0.519738   0.331925   0.287681  
H29      H        0.532892   0.332101   0.287603  
C30      C        0.509702   0.33923    0.301862  
H30      H        0.516107   0.344503   0.312101  
C32      C        0.565638   0.778308   0.7649    
C36      C        0.529295   0.805162   0.708491  
Zn1      Zn       0.458912   0.599474   0.341169  
Zn2      Zn       0.409891   0.647726   0.292976  
Zn3      Zn       0.459493   0.691993   0.248962  
O1       O        0.473905   0.636539   0.342277  
O2       O        0.421516   0.614372   0.345778  
O3       O        0.404387   0.632194   0.32872   
N1       N        0.484318   0.592742   0.333289  
N2       N        0.446447   0.575561   0.346122  
N3       N        0.458542   0.612448   0.365839  
N5       N        0.447635   0.612448   0.319263  
N6       N        0.418277   0.623001   0.331234  
N7       N        0.429801   0.630094   0.300795  
N8       N        0.386429   0.635576   0.287517  
N9       N        0.403535   0.669678   0.308236  
N11      N        0.420378   0.656287   0.26947   
N12      N        0.440587   0.6725     0.251847  
N13      N        0.484299   0.684345   0.257413  
N14      N        0.450785   0.712279   0.265361  
N15      N        0.961741   0.701889   0.723685  
C2       C        0.490286   0.57864    0.321772  
C3       C        0.480301   0.566545   0.311735  
H3       H        0.467096   0.566695   0.311801  
C4       C        0.490099   0.554224   0.301631  
H4       H        0.483707   0.545299   0.294397  
C6       C        0.453294   0.560471   0.355943  
C7       C        0.469656   0.557779   0.36551   
H7       H        0.479102   0.566893   0.365504  
C8       C        0.471902   0.541266   0.375207  
H8       H        0.482998   0.539302   0.381989  
C9       C        0.451206   0.605113   0.382066  
H9       H        0.446895   0.592804   0.383603  
C11      C        0.456748   0.614857   0.303006  
H11      H        0.468493   0.609796   0.299999  
C12      C        0.431687   0.621892   0.316909  
C13      C        0.446217   0.625733   0.291621  
H13      H        0.449501   0.629709   0.279498  
C15      C        0.373139   0.640759   0.275381  
C16      C        0.871305   0.656179   0.764402  
H16      H        0.880499   0.665601   0.764596  
C17      C        0.855731   0.657829   0.752997  
H17      H        0.854499   0.668303   0.745207  
C20      C        0.431637   0.67107    0.268045  
H20      H        0.433093   0.679803   0.277801  
C21      C        0.422845   0.647161   0.252663  
C26      C        0.43515    0.657208   0.241696  
C28      C        0.490184   0.675683   0.273754  
C29      C        0.480267   0.66808    0.287683  
H29      H        0.467104   0.667902   0.287606  
C30      C        0.490286   0.660775   0.301863  
H30      H        0.483902   0.655494   0.312098  
C32      C        0.934361   0.721699   0.764906  
C36      C        0.97071    0.694832   0.708493  
Zn1      Zn       0.599463   0.341168   0.458905  
Zn2      Zn       0.647723   0.292975   0.409892  
Zn3      Zn       0.692      0.248956   0.459493  
O1       O        0.636532   0.34228    0.473913  
O2       O        0.614378   0.345779   0.421507  
O3       O        0.632186   0.328722   0.404386  
N1       N        0.592741   0.333288   0.484314  
N2       N        0.575562   0.346117   0.446454  
N3       N        0.612454   0.365837   0.458543  
N5       N        0.612456   0.31927    0.447624  
N6       N        0.623004   0.33124    0.418281  
N7       N        0.630093   0.300787   0.429795  
N8       N        0.635573   0.287522   0.386436  
N9       N        0.669681   0.308245   0.403534  
N11      N        0.656277   0.269472   0.42037   
N12      N        0.672495   0.251837   0.440591  
N13      N        0.684335   0.257421   0.484305  
N14      N        0.712284   0.265355   0.450791  
N15      N        0.701886   0.723685   0.961739  
C2       C        0.578637   0.321782   0.490297  
C3       C        0.56654    0.311744   0.480299  
H3       H        0.566701   0.311796   0.467104  
C4       C        0.554218   0.30164    0.490089  
H4       H        0.545298   0.294402   0.483695  
C6       C        0.560465   0.355943   0.453296  
C7       C        0.557782   0.365503   0.469648  
H7       H        0.566897   0.365498   0.479094  
C8       C        0.541269   0.3752     0.471899  
H8       H        0.539306   0.382002   0.482999  
C9       C        0.605103   0.382056   0.451196  
H9       H        0.592809   0.383606   0.446904  
C11      C        0.61486    0.303003   0.456742  
H11      H        0.609805   0.300001   0.468499  
C12      C        0.621897   0.316907   0.431674  
C13      C        0.625745   0.291625   0.446222  
H13      H        0.6297     0.2795     0.449494  
C15      C        0.64076    0.275374   0.373142  
C16      C        0.656187   0.764402   0.871312  
H16      H        0.665603   0.764601   0.880495  
C17      C        0.657836   0.752997   0.855727  
H17      H        0.668302   0.745193   0.854503  
C20      C        0.671071   0.268057   0.431638  
H20      H        0.679804   0.277795   0.433102  
C21      C        0.647161   0.252661   0.422844  
C26      C        0.657206   0.241705   0.435152  
C28      C        0.675685   0.273751   0.490186  
C29      C        0.668071   0.287675   0.480257  
H29      H        0.667895   0.287596   0.467096  
C30      C        0.66077    0.301859   0.490282  
H30      H        0.655495   0.312099   0.4839    
C32      C        0.721702   0.7649     0.934351  
C36      C        0.694842   0.708488   0.970707  
Zn1      Zn       0.400526   0.341171   0.541085  
Zn2      Zn       0.352275   0.292986   0.590113  
Zn3      Zn       0.307998   0.248967   0.54051   
O1       O        0.363458   0.342279   0.526091  
O2       O        0.385636   0.345778   0.57849   
O3       O        0.367814   0.328725   0.595622  
N1       N        0.407253   0.333295   0.515684  
N2       N        0.424438   0.346125   0.553544  
N3       N        0.387545   0.365826   0.541461  
N5       N        0.38755    0.319275   0.552366  
N6       N        0.377002   0.331239   0.581728  
N7       N        0.369898   0.300791   0.570203  
N8       N        0.364429   0.287525   0.613573  
N9       N        0.330319   0.308241   0.596461  
N11      N        0.343722   0.269467   0.57963   
N12      N        0.327499   0.251846   0.559411  
N13      N        0.315657   0.257422   0.5157    
N14      N        0.28772    0.265354   0.549212  
N15      N        0.798111   0.723686   0.538266  
C2       C        0.421359   0.321779   0.50971   
C3       C        0.433466   0.311738   0.519692  
H3       H        0.433302   0.311802   0.532907  
C4       C        0.445786   0.301625   0.509906  
H4       H        0.454702   0.294405   0.516303  
C6       C        0.439529   0.355936   0.546709  
C7       C        0.442215   0.365513   0.530355  
H7       H        0.4331     0.365509   0.5209    
C8       C        0.458732   0.375191   0.528101  
H8       H        0.460702   0.382005   0.516998  
C9       C        0.394892   0.382064   0.548805  
H9       H        0.4072     0.383601   0.553104  
C11      C        0.38514    0.303012   0.543264  
H11      H        0.390198   0.300008   0.531501  
C12      C        0.378106   0.316916   0.568318  
C13      C        0.374255   0.291618   0.553777  
H13      H        0.370298   0.279506   0.550494  
C15      C        0.359238   0.275372   0.626862  
C16      C        0.843818   0.764395   0.628687  
H16      H        0.834401   0.764596   0.619496  
C17      C        0.842171   0.753005   0.644268  
H17      H        0.831701   0.745198   0.645494  
C20      C        0.328924   0.26805    0.568356  
H20      H        0.320192   0.277803   0.566907  
C21      C        0.352835   0.25266    0.577164  
C26      C        0.342793   0.241704   0.564852  
C28      C        0.32432    0.273747   0.509815  
C29      C        0.331921   0.287679   0.519739  
H29      H        0.332098   0.287596   0.532905  
C30      C        0.339228   0.301862   0.509708  
H30      H        0.344494   0.312101   0.516098  
C32      C        0.778299   0.764901   0.565642  
C36      C        0.805165   0.708495   0.529289  
Zn1      Zn       0.400526   0.658828   0.458911  
Zn2      Zn       0.352277   0.707021   0.409896  
Zn3      Zn       0.308002   0.751046   0.459493  
O1       O        0.363462   0.657713   0.473914  
O2       O        0.385628   0.654219   0.421509  
O3       O        0.367809   0.671279   0.40439   
N1       N        0.407264   0.666711   0.484326  
N2       N        0.424435   0.65388    0.446448  
N3       N        0.387554   0.634172   0.458537  
N5       N        0.387549   0.680724   0.447632  
N6       N        0.377005   0.668761   0.418288  
N7       N        0.369899   0.699204   0.429798  
N8       N        0.364417   0.712485   0.386432  
N9       N        0.330324   0.691762   0.403532  
N11      N        0.343723   0.73053    0.420389  
N12      N        0.3275     0.748171   0.440588  
N13      N        0.315655   0.742577   0.484296  
N14      N        0.287713   0.734639   0.450791  
N15      N        0.798113   0.776308   0.961744  
C2       C        0.421366   0.678218   0.490289  
C3       C        0.433464   0.688258   0.480307  
H3       H        0.4333     0.688199   0.467107  
C4       C        0.445774   0.698374   0.490092  
H4       H        0.454704   0.705604   0.483703  
C6       C        0.439532   0.644064   0.453287  
C7       C        0.442221   0.634495   0.469652  
H7       H        0.433103   0.634501   0.479107  
C8       C        0.458723   0.624801   0.471903  
H8       H        0.460696   0.617996   0.482998  
C9       C        0.394894   0.617942   0.451205  
H9       H        0.407198   0.616394   0.446897  
C11      C        0.38514    0.696995   0.456744  
H11      H        0.390196   0.700004   0.468503  
C12      C        0.378114   0.683083   0.43168   
C13      C        0.374265   0.708381   0.44622   
H13      H        0.370302   0.720494   0.449502  
C15      C        0.359236   0.724621   0.373141  
C16      C        0.843819   0.735593   0.87131   
H16      H        0.834395   0.735396   0.880496  
C17      C        0.842164   0.747      0.855731  
H17      H        0.831699   0.754793   0.854499  
C20      C        0.32893    0.731945   0.431646  
H20      H        0.320193   0.722204   0.433102  
C21      C        0.35284    0.74734    0.422832  
C26      C        0.3428     0.758297   0.435143  
C28      C        0.324323   0.726247   0.490187  
C29      C        0.331923   0.712319   0.48026   
H29      H        0.332095   0.712395   0.4671    
C30      C        0.339222   0.698137   0.490289  
H30      H        0.344508   0.6879     0.483898  
C32      C        0.778297   0.735105   0.934356  
C36      C        0.805166   0.791511   0.97071   
Zn1      Zn       0.599471   0.658835   0.541089  
Zn2      Zn       0.647722   0.707024   0.590105  
Zn3      Zn       0.691998   0.751037   0.54051   
O1       O        0.636537   0.657717   0.526087  
O2       O        0.614375   0.654223   0.578487  
O3       O        0.632199   0.671285   0.595623  
N1       N        0.59274    0.666713   0.515681  
N2       N        0.575562   0.653874   0.553551  
N3       N        0.612445   0.634171   0.541465  
N5       N        0.61245    0.680736   0.552366  
N6       N        0.622998   0.668761   0.581714  
N7       N        0.6301     0.699207   0.570207  
N8       N        0.635579   0.712484   0.613574  
N9       N        0.669681   0.691766   0.596471  
N11      N        0.656287   0.730531   0.579622  
N12      N        0.672492   0.748158   0.55941   
N13      N        0.684339   0.742582   0.515689  
N14      N        0.712283   0.734634   0.549215  
N15      N        0.701893   0.776306   0.538254  
C2       C        0.578647   0.678222   0.509715  
C3       C        0.566548   0.688259   0.519695  
H3       H        0.566697   0.688195   0.532901  
C4       C        0.554227   0.698376   0.509911  
H4       H        0.545301   0.705603   0.516296  
C6       C        0.560472   0.644064   0.546713  
C7       C        0.557779   0.634495   0.53035   
H7       H        0.566897   0.634499   0.520905  
C8       C        0.541265   0.624796   0.528101  
H8       H        0.539301   0.618003   0.516993  
C9       C        0.605109   0.617945   0.548799  
H9       H        0.592802   0.616399   0.553107  
C11      C        0.614868   0.696991   0.54326   
H11      H        0.609798   0.699994   0.531502  
C12      C        0.621889   0.683099   0.568316  
C13      C        0.625733   0.708382   0.553786  
H13      H        0.629706   0.720503   0.550498  
C15      C        0.640756   0.724621   0.626859  
C16      C        0.656181   0.735595   0.628694  
H16      H        0.665601   0.735406   0.619502  
C17      C        0.657829   0.747007   0.644273  
H17      H        0.668301   0.754801   0.645507  
C20      C        0.671073   0.731945   0.568357  
H20      H        0.6798     0.722196   0.566903  
C21      C        0.647162   0.747336   0.577155  
C26      C        0.657206   0.758308   0.564851  
C28      C        0.675682   0.726246   0.509814  
C29      C        0.668082   0.712323   0.519741  
H29      H        0.667901   0.712401   0.532903  
C30      C        0.660766   0.698144   0.509712  
H30      H        0.655501   0.687897   0.5161    
C32      C        0.721702   0.735092   0.565641  
C36      C        0.694839   0.791509   0.5293    
Zn1      Zn       0.341165   0.541092   0.40053   
Zn2      Zn       0.292979   0.590107   0.352279  
Zn3      Zn       0.248962   0.540505   0.308004  
O1       O        0.342274   0.526084   0.363459  
O2       O        0.345778   0.578499   0.385627  
O3       O        0.328712   0.595615   0.367806  
N1       N        0.333289   0.515681   0.407256  
N2       N        0.346122   0.553548   0.424445  
N3       N        0.365837   0.54146    0.387549  
N5       N        0.319273   0.552373   0.387544  
N6       N        0.331245   0.581719   0.377001  
N7       N        0.300791   0.570194   0.3699    
N8       N        0.287511   0.61357    0.364423  
N9       N        0.308242   0.596472   0.330322  
N11      N        0.269474   0.579626   0.343722  
N12      N        0.251836   0.559412   0.327506  
N13      N        0.257422   0.51569    0.315662  
N14      N        0.265357   0.549213   0.287721  
N15      N        0.723688   0.538262   0.798118  
C2       C        0.321775   0.509706   0.421359  
C3       C        0.311747   0.519698   0.43346   
H3       H        0.311795   0.5329     0.433302  
C4       C        0.30163    0.509911   0.445773  
H4       H        0.294407   0.5163     0.454701  
C6       C        0.355937   0.546707   0.439532  
C7       C        0.365511   0.530347   0.442221  
H7       H        0.365501   0.5209     0.4331    
C8       C        0.375199   0.528098   0.458728  
H8       H        0.382      0.517004   0.460695  
C9       C        0.382052   0.548804   0.394893  
H9       H        0.383599   0.553109   0.407198  
C11      C        0.303007   0.543257   0.385144  
H11      H        0.299998   0.531506   0.390197  
C12      C        0.316919   0.568316   0.378104  
C13      C        0.291626   0.553785   0.374263  
H13      H        0.279501   0.550503   0.370298  
C15      C        0.275374   0.62686    0.359242  
C16      C        0.764405   0.628688   0.843816  
H16      H        0.764605   0.6195     0.834396  
C17      C        0.753004   0.644275   0.842173  
H17      H        0.745197   0.645499   0.831704  
C20      C        0.268052   0.568368   0.32893   
H20      H        0.277803   0.566894   0.3202    
C21      C        0.252657   0.577164   0.352843  
C26      C        0.241704   0.564858   0.342802  
C28      C        0.273751   0.509816   0.324317  
C29      C        0.28768    0.519736   0.331926  
H29      H        0.287594   0.532901   0.3321    
C30      C        0.301864   0.509712   0.339228  
H30      H        0.312103   0.516092   0.344502  
C32      C        0.764899   0.565646   0.778294  
C36      C        0.70849    0.529287   0.805154  
Zn1      Zn       0.34117    0.458908   0.599466  
Zn2      Zn       0.292976   0.409891   0.647719  
Zn3      Zn       0.248959   0.459492   0.691995  
O1       O        0.342278   0.473911   0.636543  
O2       O        0.345786   0.421513   0.614376  
O3       O        0.328723   0.404385   0.63219   
N1       N        0.333287   0.484318   0.592741  
N2       N        0.346119   0.446452   0.575551  
N3       N        0.365822   0.458538   0.61245   
N5       N        0.319272   0.447633   0.612446  
N6       N        0.331238   0.418275   0.623001  
N7       N        0.300783   0.429802   0.6301    
N8       N        0.287523   0.386431   0.635572  
N9       N        0.308246   0.403527   0.669674  
N11      N        0.269462   0.420382   0.656285  
N12      N        0.251837   0.440598   0.6725    
N13      N        0.257421   0.484301   0.684343  
N14      N        0.265353   0.450786   0.712276  
N15      N        0.723682   0.961737   0.701887  
C2       C        0.32178    0.490289   0.578642  
C3       C        0.311746   0.480302   0.566537  
H3       H        0.311797   0.467097   0.566697  
C4       C        0.301631   0.490093   0.554219  
H4       H        0.294399   0.4837     0.545295  
C6       C        0.35594    0.453286   0.560471  
C7       C        0.365513   0.469644   0.557784  
H7       H        0.365501   0.479102   0.566894  
C8       C        0.3752     0.471896   0.541273  
H8       H        0.381998   0.483004   0.539293  
C9       C        0.382057   0.451205   0.605113  
H9       H        0.3836     0.446903   0.592806  
C11      C        0.303009   0.456736   0.614859  
H11      H        0.300005   0.468497   0.609797  
C12      C        0.316907   0.431687   0.621889  
C13      C        0.291615   0.446224   0.625743  
H13      H        0.279506   0.4495     0.629695  
C15      C        0.275378   0.373132   0.640762  
C16      C        0.764401   0.871303   0.656179  
H16      H        0.764597   0.880506   0.665601  
C17      C        0.753007   0.855728   0.657828  
H17      H        0.745206   0.8545     0.6683    
C20      C        0.268052   0.431641   0.671076  
H20      H        0.277798   0.433096   0.679806  
C21      C        0.252657   0.422841   0.647168  
C26      C        0.241699   0.435151   0.657205  
C28      C        0.27375    0.490182   0.675681  
C29      C        0.287684   0.480256   0.668078  
H29      H        0.287601   0.467091   0.667904  
C30      C        0.301866   0.490286   0.66077   
H30      H        0.312097   0.483902   0.655501  
C32      C        0.764899   0.934362   0.721702  
C36      C        0.708492   0.970711   0.694833  
Zn1      Zn       0.658825   0.541088   0.59947   
Zn2      Zn       0.707022   0.590102   0.647721  
Zn3      Zn       0.75104    0.540515   0.691999  
O1       O        0.65772    0.526086   0.636545  
O2       O        0.654217   0.578487   0.614365  
O3       O        0.671272   0.59562    0.632194  
N1       N        0.666704   0.515681   0.592736  
N2       N        0.653875   0.553556   0.575564  
N3       N        0.634172   0.541467   0.612449  
N5       N        0.680733   0.552367   0.612458  
N6       N        0.668763   0.581718   0.623004  
N7       N        0.699211   0.570194   0.630102  
N8       N        0.712479   0.613567   0.635576  
N9       N        0.691763   0.596467   0.669677  
N11      N        0.730526   0.579621   0.656282  
N12      N        0.748159   0.559415   0.672492  
N13      N        0.742579   0.515699   0.684342  
N14      N        0.734641   0.549202   0.712281  
N15      N        0.776311   0.53826    0.701893  
C2       C        0.678217   0.509709   0.578632  
C3       C        0.688256   0.519702   0.566544  
H3       H        0.688195   0.5329     0.566703  
C4       C        0.698373   0.509908   0.554225  
H4       H        0.705607   0.516302   0.545304  
C6       C        0.64406    0.546716   0.560468  
C7       C        0.634492   0.530349   0.557777  
H7       H        0.634499   0.520895   0.566897  
C8       C        0.624793   0.528095   0.541267  
H8       H        0.618002   0.516995   0.539304  
C9       C        0.617945   0.548801   0.605115  
H9       H        0.616396   0.553102   0.592803  
C11      C        0.696994   0.543262   0.614865  
H11      H        0.700003   0.531498   0.609804  
C12      C        0.683092   0.568317   0.621892  
C13      C        0.708384   0.553778   0.625737  
H13      H        0.720501   0.550497   0.629703  
C15      C        0.724621   0.626854   0.640759  
C16      C        0.735601   0.628684   0.656184  
H16      H        0.735393   0.619503   0.665601  
C17      C        0.746996   0.64427    0.657834  
H17      H        0.754793   0.645498   0.668298  
C20      C        0.731948   0.568354   0.671074  
H20      H        0.722194   0.566898   0.679797  
C21      C        0.747344   0.577166   0.647161  
C26      C        0.758303   0.564854   0.657202  
C28      C        0.726256   0.509808   0.67568   
C29      C        0.712325   0.519738   0.668081  
H29      H        0.712396   0.5329     0.667905  
C30      C        0.698139   0.509708   0.660777  
H30      H        0.687899   0.516106   0.655496  
C32      C        0.7351     0.565641   0.721695  
C36      C        0.791517   0.52929    0.694841  
Zn1      Zn       0.658827   0.458914   0.400524  
Zn2      Zn       0.707021   0.409897   0.352277  
Zn3      Zn       0.751037   0.459484   0.307997  
O1       O        0.657717   0.473907   0.363458  
O2       O        0.654224   0.421515   0.385629  
O3       O        0.67128    0.404382   0.3678    
N1       N        0.666706   0.484322   0.407257  
N2       N        0.653881   0.44645    0.424446  
N3       N        0.634168   0.458532   0.387549  
N5       N        0.680728   0.447632   0.387539  
N6       N        0.668762   0.418278   0.376996  
N7       N        0.699203   0.429799   0.369902  
N8       N        0.712485   0.386428   0.364425  
N9       N        0.691765   0.403532   0.33032   
N11      N        0.730535   0.420377   0.343716  
N12      N        0.748154   0.440587   0.327501  
N13      N        0.742586   0.4843     0.315655  
N14      N        0.734639   0.450789   0.287725  
N15      N        0.776312   0.961742   0.798109  
C2       C        0.678225   0.490292   0.421363  
C3       C        0.688267   0.480298   0.433453  
H3       H        0.688202   0.467091   0.433302  
C4       C        0.69837    0.490092   0.445771  
H4       H        0.705604   0.483707   0.454703  
C6       C        0.644061   0.453287   0.439526  
C7       C        0.634493   0.469651   0.44222   
H7       H        0.634497   0.479099   0.433104  
C8       C        0.624798   0.471898   0.458736  
H8       H        0.618005   0.483002   0.460696  
C9       C        0.617943   0.451196   0.394885  
H9       H        0.616402   0.446892   0.407199  
C11      C        0.696999   0.456745   0.385144  
H11      H        0.699991   0.468496   0.390198  
C12      C        0.683099   0.43168    0.378108  
C13      C        0.708372   0.446219   0.374262  
H13      H        0.720509   0.449499   0.370297  
C15      C        0.724616   0.373143   0.359241  
C16      C        0.735597   0.87131    0.843826  
H16      H        0.735405   0.8805     0.834401  
C17      C        0.747004   0.855729   0.842171  
H17      H        0.754796   0.854503   0.831704  
C20      C        0.731956   0.431637   0.328931  
H20      H        0.722194   0.4331     0.320201  
C21      C        0.74734    0.422845   0.352843  
C26      C        0.7583     0.435151   0.342789  
C28      C        0.726251   0.490185   0.324323  
C29      C        0.71232    0.480261   0.331916  
H29      H        0.712398   0.467096   0.332095  
C30      C        0.698139   0.490285   0.339226  
H30      H        0.687899   0.483897   0.344498  
C32      C        0.735102   0.93436    0.778308  
C36      C        0.791511   0.970705   0.805168  
Zn1      Zn       0.400526   0.458913   0.658827  
Zn2      Zn       0.352275   0.409895   0.707022  
Zn3      Zn       0.307998   0.459498   0.751041  
O1       O        0.363458   0.473907   0.657719  
O2       O        0.385636   0.421508   0.65422   
O3       O        0.367814   0.404386   0.671283  
N1       N        0.407253   0.484324   0.666713  
N2       N        0.424438   0.446454   0.653873  
N3       N        0.387545   0.458537   0.634172  
N5       N        0.38755    0.447632   0.680723  
N6       N        0.377002   0.41828    0.668769  
N7       N        0.369898   0.429795   0.699207  
N8       N        0.364429   0.386435   0.712483  
N9       N        0.330319   0.403537   0.691757  
N11      N        0.343722   0.420378   0.730541  
N12      N        0.327499   0.440597   0.748162  
N13      N        0.315657   0.484298   0.742576  
N14      N        0.28772    0.450786   0.734644  
N15      N        0.798111   0.961736   0.776316  
C2       C        0.421359   0.490288   0.678219  
C3       C        0.433466   0.480306   0.68826   
H3       H        0.433302   0.467101   0.688205  
C4       C        0.445786   0.490092   0.698373  
H4       H        0.454702   0.483705   0.705603  
C6       C        0.439529   0.453289   0.644062  
C7       C        0.442215   0.469652   0.634495  
H7       H        0.4331     0.479108   0.634499  
C8       C        0.458732   0.471897   0.624807  
H8       H        0.460702   0.483      0.617994  
C9       C        0.394892   0.451202   0.617944  
H9       H        0.4072     0.446894   0.616397  
C11      C        0.38514    0.456743   0.696996  
H11      H        0.390198   0.468507   0.7       
C12      C        0.378106   0.431681   0.683082  
C13      C        0.374255   0.446221   0.70838   
H13      H        0.370298   0.449504   0.720492  
C15      C        0.359238   0.373136   0.724626  
C16      C        0.843818   0.871305   0.735598  
H16      H        0.834401   0.880497   0.735396  
C17      C        0.842171   0.855734   0.746997  
H17      H        0.831701   0.854498   0.754794  
C20      C        0.328924   0.431643   0.731948  
H20      H        0.320192   0.433101   0.722205  
C21      C        0.352835   0.422834   0.747338  
C26      C        0.342793   0.435146   0.758294  
C28      C        0.32432    0.490183   0.726251  
C29      C        0.331921   0.480259   0.712319  
H29      H        0.332098   0.467093   0.712402  
C30      C        0.339228   0.49029    0.698136  
H30      H        0.344494   0.483901   0.687897  
C32      C        0.778299   0.93436    0.735101  
C36      C        0.805165   0.970713   0.791507  
Zn1      Zn       0.599463   0.541093   0.65883   
Zn2      Zn       0.647723   0.590106   0.707023  
Zn3      Zn       0.692      0.540505   0.751042  
O1       O        0.636532   0.526086   0.657718  
O2       O        0.614378   0.578491   0.654219  
O3       O        0.632186   0.595621   0.671286  
N1       N        0.592741   0.515684   0.66671   
N2       N        0.575562   0.553544   0.653881  
N3       N        0.612454   0.541465   0.634171  
N5       N        0.612456   0.552374   0.680728  
N6       N        0.623004   0.581717   0.668758  
N7       N        0.630093   0.570203   0.699211  
N8       N        0.635573   0.613572   0.712486  
N9       N        0.669681   0.596474   0.691763  
N11      N        0.656277   0.579628   0.730526  
N12      N        0.672495   0.559407   0.748161  
N13      N        0.684335   0.515693   0.742577  
N14      N        0.712284   0.549207   0.734643  
N15      N        0.701886   0.538253   0.776307  
C2       C        0.578637   0.509711   0.678226  
C3       C        0.56654    0.519699   0.688254  
H3       H        0.566701   0.532894   0.688202  
C4       C        0.554218   0.509919   0.698368  
H4       H        0.545298   0.516303   0.705596  
C6       C        0.560465   0.546712   0.644065  
C7       C        0.557782   0.53035    0.634495  
H7       H        0.566897   0.520904   0.6345    
C8       C        0.541269   0.528099   0.624798  
H8       H        0.539306   0.516999   0.617996  
C9       C        0.605103   0.548802   0.617942  
H9       H        0.592809   0.553104   0.616402  
C11      C        0.61486    0.543256   0.696995  
H11      H        0.609805   0.531499   0.699997  
C12      C        0.621897   0.568324   0.683091  
C13      C        0.625745   0.553785   0.708383  
H13      H        0.6297     0.550504   0.720498  
C15      C        0.64076    0.626856   0.724624  
C16      C        0.656187   0.62869    0.7356    
H16      H        0.665603   0.619507   0.735401  
C17      C        0.657836   0.644275   0.747005  
H17      H        0.668302   0.645499   0.754809  
C20      C        0.671071   0.568361   0.731942  
H20      H        0.679804   0.566896   0.722203  
C21      C        0.647161   0.577154   0.747337  
C26      C        0.657206   0.564856   0.758303  
C28      C        0.675685   0.509812   0.726247  
C29      C        0.668071   0.519741   0.712323  
H29      H        0.667895   0.532902   0.712402  
C30      C        0.66077    0.509716   0.698139  
H30      H        0.655495   0.516098   0.687899  
C32      C        0.721702   0.565641   0.735092  
C36      C        0.694842   0.529295   0.791514  
Zn1      Zn       0.599471   0.458909   0.341164  
Zn2      Zn       0.647722   0.409893   0.292974  
Zn3      Zn       0.691998   0.459488   0.248962  
O1       O        0.636537   0.473911   0.342281  
O2       O        0.614375   0.421511   0.345775  
O3       O        0.632199   0.404385   0.328723  
N1       N        0.59274    0.484317   0.333286  
N2       N        0.575562   0.446448   0.346124  
N3       N        0.612445   0.458543   0.365837  
N5       N        0.61245    0.447632   0.319262  
N6       N        0.622998   0.418284   0.331237  
N7       N        0.6301     0.429791   0.300791  
N8       N        0.635579   0.386434   0.287524  
N9       N        0.669681   0.403537   0.308241  
N11      N        0.656287   0.420376   0.269467  
N12      N        0.672492   0.440588   0.25184   
N13      N        0.684339   0.484309   0.257416  
N14      N        0.712283   0.450783   0.265364  
N15      N        0.701893   0.961738   0.723686  
C2       C        0.578647   0.490293   0.321786  
C3       C        0.566548   0.480303   0.311739  
H3       H        0.566697   0.467097   0.311803  
C4       C        0.554227   0.490097   0.301632  
H4       H        0.545301   0.483702   0.294395  
C6       C        0.560472   0.453295   0.355944  
C7       C        0.557779   0.469648   0.365503  
H7       H        0.566897   0.479093   0.365499  
C8       C        0.541265   0.471897   0.375202  
H8       H        0.539301   0.483006   0.381995  
C9       C        0.605109   0.451199   0.382053  
H9       H        0.592802   0.446901   0.383608  
C11      C        0.614868   0.456738   0.303007  
H11      H        0.609798   0.468496   0.300004  
C12      C        0.621889   0.431682   0.316899  
C13      C        0.625733   0.446222   0.291626  
H13      H        0.629706   0.4495     0.279495  
C15      C        0.640756   0.373139   0.275377  
C16      C        0.656181   0.871308   0.764406  
H16      H        0.665601   0.8805     0.764596  
C17      C        0.657829   0.855729   0.752995  
H17      H        0.668301   0.854495   0.745201  
C20      C        0.671073   0.431641   0.268053  
H20      H        0.6798     0.433095   0.277802  
C21      C        0.647162   0.422843   0.252662  
C26      C        0.657206   0.435156   0.2417    
C28      C        0.675682   0.490184   0.273753  
C29      C        0.668082   0.480257   0.287675  
H29      H        0.667901   0.467095   0.287597  
C30      C        0.660766   0.490286   0.301854  
H30      H        0.655501   0.483898   0.312101  
C32      C        0.721702   0.934351   0.7649    
C36      C        0.694839   0.970702   0.708493  
Zn1      Zn       0.400526   0.541087   0.34117   
Zn2      Zn       0.352277   0.590112   0.292986  
Zn3      Zn       0.308002   0.540515   0.248962  
O1       O        0.363462   0.526085   0.342285  
O2       O        0.385628   0.578489   0.345779  
O3       O        0.367809   0.595618   0.328729  
N1       N        0.407264   0.515682   0.333297  
N2       N        0.424435   0.55355    0.346118  
N3       N        0.387554   0.541461   0.365826  
N5       N        0.387549   0.552366   0.319274  
N6       N        0.377005   0.58172    0.331247  
N7       N        0.369899   0.5702     0.300794  
N8       N        0.364417   0.613576   0.287522  
N9       N        0.330324   0.596466   0.308236  
N11      N        0.343723   0.579619   0.269478  
N12      N        0.3275     0.559419   0.251837  
N13      N        0.315655   0.515702   0.257421  
N14      N        0.287713   0.549208   0.265359  
N15      N        0.798113   0.538258   0.723694  
C2       C        0.421366   0.509709   0.32178   
C3       C        0.433464   0.519691   0.31174   
H3       H        0.4333     0.532901   0.311809  
C4       C        0.445774   0.509906   0.301624  
H4       H        0.454704   0.516305   0.294403  
C6       C        0.439532   0.546711   0.355934  
C7       C        0.442221   0.530356   0.365513  
H7       H        0.433103   0.520901   0.365507  
C8       C        0.458723   0.528095   0.375197  
H8       H        0.460696   0.517      0.382002  
C9       C        0.394894   0.548803   0.382066  
H9       H        0.407198   0.553102   0.383604  
C11      C        0.38514    0.543263   0.303013  
H11      H        0.390196   0.531504   0.300004  
C12      C        0.378114   0.568318   0.316915  
C13      C        0.374265   0.553778   0.291618  
H13      H        0.370302   0.550497   0.279504  
C15      C        0.359236   0.626857   0.275377  
C16      C        0.843819   0.628682   0.764399  
H16      H        0.834395   0.619496   0.764596  
C17      C        0.842164   0.644271   0.753002  
H17      H        0.831699   0.645493   0.745199  
C20      C        0.32893    0.568352   0.268053  
H20      H        0.320193   0.566906   0.277804  
C21      C        0.35284    0.577166   0.252658  
C26      C        0.3428     0.564855   0.241701  
C28      C        0.324323   0.509811   0.273751  
C29      C        0.331923   0.519738   0.287679  
H29      H        0.332095   0.532898   0.287603  
C30      C        0.339222   0.509709   0.301861  
H30      H        0.344508   0.5161     0.312098  
C32      C        0.778297   0.565646   0.764897  
C36      C        0.805166   0.529292   0.708491  
Zn1      Zn       0.658825   0.400528   0.45891   
Zn2      Zn       0.707022   0.352277   0.409896  
Zn3      Zn       0.75104    0.307999   0.459483  
O1       O        0.65772    0.363453   0.473912  
O2       O        0.654217   0.385633   0.421511  
O3       O        0.671272   0.367804   0.404378  
N1       N        0.666704   0.407262   0.484317  
N2       N        0.653875   0.424444   0.446452  
N3       N        0.634172   0.387549   0.458531  
N5       N        0.680733   0.38754    0.447631  
N6       N        0.668763   0.376994   0.41828   
N7       N        0.699211   0.369897   0.429804  
N8       N        0.712479   0.364422   0.386431  
N9       N        0.691763   0.330321   0.403531  
N11      N        0.730526   0.343716   0.420377  
N12      N        0.748159   0.327506   0.440583  
N13      N        0.742579   0.315656   0.484299  
N14      N        0.734641   0.287717   0.450797  
N15      N        0.776311   0.798108   0.961742  
C2       C        0.678217   0.421366   0.490289  
C3       C        0.688256   0.433454   0.480296  
H3       H        0.688195   0.433295   0.467098  
C4       C        0.698373   0.445773   0.49009   
H4       H        0.705607   0.454704   0.483706  
C6       C        0.64406    0.439531   0.453283  
C7       C        0.634492   0.442221   0.469649  
H7       H        0.634499   0.433101   0.479103  
C8       C        0.624793   0.458731   0.471903  
H8       H        0.618002   0.460694   0.483003  
C9       C        0.617945   0.394883   0.451197  
H9       H        0.616396   0.407195   0.446896  
C11      C        0.696994   0.385143   0.456746  
H11      H        0.700003   0.390194   0.4685    
C12      C        0.683092   0.378106   0.431681  
C13      C        0.708384   0.374261   0.44622   
H13      H        0.720501   0.370295   0.449501  
C15      C        0.724621   0.359239   0.373144  
C16      C        0.735601   0.843818   0.871317  
H16      H        0.735393   0.834401   0.880499  
C17      C        0.746996   0.842168   0.855732  
H17      H        0.754793   0.831703   0.854504  
C20      C        0.731948   0.328924   0.431644  
H20      H        0.722194   0.320201   0.4331    
C21      C        0.747344   0.352847   0.422842  
C26      C        0.758303   0.342796   0.435144  
C28      C        0.726256   0.324318   0.49019   
C29      C        0.712325   0.331917   0.48026   
H29      H        0.712396   0.332093   0.467098  
C30      C        0.698139   0.339221   0.49029   
H30      H        0.687899   0.344502   0.483892  
C32      C        0.7351     0.778307   0.934361  
C36      C        0.791517   0.805161   0.970712  
Zn1      Zn       0.658827   0.599474   0.541084  
Zn2      Zn       0.707021   0.647721   0.590101  
Zn3      Zn       0.751037   0.692001   0.540514  
O1       O        0.657717   0.636541   0.526091  
O2       O        0.654224   0.614369   0.578483  
O3       O        0.67128    0.632198   0.595616  
N1       N        0.666706   0.592741   0.515676  
N2       N        0.653881   0.575562   0.553558  
N3       N        0.634168   0.612449   0.541466  
N5       N        0.680728   0.612459   0.552366  
N6       N        0.668762   0.623002   0.58172   
N7       N        0.699203   0.630096   0.5702    
N8       N        0.712485   0.635573   0.61357   
N9       N        0.691765   0.669678   0.596466  
N11      N        0.730535   0.656282   0.579621  
N12      N        0.748154   0.672497   0.559411  
N13      N        0.742586   0.684343   0.515698  
N14      N        0.734639   0.712273   0.54921   
N15      N        0.776312   0.701893   0.53826   
C2       C        0.678225   0.578635   0.509706  
C3       C        0.688267   0.566545   0.519701  
H3       H        0.688202   0.566696   0.532907  
C4       C        0.69837    0.554227   0.509906  
H4       H        0.705604   0.545305   0.516301  
C6       C        0.644061   0.560472   0.546711  
C7       C        0.634493   0.557778   0.530347  
H7       H        0.634497   0.566894   0.520899  
C8       C        0.624798   0.541262   0.5281    
H8       H        0.618005   0.539302   0.516996  
C9       C        0.617943   0.605113   0.548802  
H9       H        0.616402   0.592799   0.553106  
C11      C        0.696999   0.614863   0.543263  
H11      H        0.699991   0.6098     0.531502  
C12      C        0.683099   0.62189    0.568318  
C13      C        0.708372   0.625736   0.553779  
H13      H        0.720509   0.629701   0.550499  
C15      C        0.724616   0.640757   0.626855  
C16      C        0.735597   0.656176   0.628692  
H16      H        0.735405   0.665601   0.619502  
C17      C        0.747004   0.657831   0.644272  
H17      H        0.754796   0.668298   0.645499  
C20      C        0.731956   0.671067   0.568361  
H20      H        0.722194   0.679797   0.566898  
C21      C        0.74734    0.647165   0.577163  
C26      C        0.7583     0.657209   0.564847  
C28      C        0.726251   0.675675   0.509813  
C29      C        0.71232    0.668082   0.519737  
H29      H        0.712398   0.667903   0.532902  
C30      C        0.698139   0.660772   0.509713  
H30      H        0.687899   0.6555     0.516101  
C32      C        0.735102   0.721694   0.565642  
C36      C        0.791511   0.694834   0.529297  
Zn1      Zn       0.341165   0.599468   0.458906  
Zn2      Zn       0.292979   0.647719   0.409891  
Zn3      Zn       0.248962   0.691994   0.459493  
O1       O        0.342274   0.63654    0.473914  
O2       O        0.345778   0.614381   0.421509  
O3       O        0.328712   0.632192   0.404383  
N1       N        0.333289   0.592742   0.484317  
N2       N        0.346122   0.575553   0.44645   
N3       N        0.365837   0.61245    0.458538  
N5       N        0.319273   0.612454   0.447625  
N6       N        0.331245   0.622997   0.418279  
N7       N        0.300791   0.630098   0.429804  
N8       N        0.287511   0.635575   0.386428  
N9       N        0.308242   0.669676   0.403526  
N11      N        0.269474   0.656286   0.420382  
N12      N        0.251836   0.672502   0.440596  
N13      N        0.257422   0.684336   0.484308  
N14      N        0.265357   0.712277   0.450785  
N15      N        0.723688   0.701884   0.96174   
C2       C        0.321775   0.578639   0.490292  
C3       C        0.311747   0.566538   0.4803    
H3       H        0.311795   0.566696   0.467098  
C4       C        0.30163    0.554225   0.490087  
H4       H        0.294407   0.545297   0.483698  
C6       C        0.355937   0.560466   0.453291  
C7       C        0.365511   0.557777   0.469651  
H7       H        0.365501   0.566898   0.479098  
C8       C        0.375199   0.54127    0.4719    
H8       H        0.382      0.539303   0.482994  
C9       C        0.382052   0.605115   0.451203  
H9       H        0.383599   0.59281    0.446899  
C11      C        0.303007   0.614854   0.456741  
H11      H        0.299998   0.609801   0.468492  
C12      C        0.316919   0.621894   0.431682  
C13      C        0.291626   0.625744   0.446223  
H13      H        0.279501   0.6297     0.449495  
C15      C        0.275374   0.640756   0.373138  
C16      C        0.764405   0.656177   0.871305  
H16      H        0.764605   0.665605   0.880502  
C17      C        0.753004   0.657829   0.855727  
H17      H        0.745197   0.668298   0.854503  
C20      C        0.268052   0.671078   0.43164   
H20      H        0.277803   0.679798   0.433104  
C21      C        0.252657   0.647164   0.422844  
C26      C        0.241704   0.657206   0.43515   
C28      C        0.273751   0.675681   0.490182  
C29      C        0.28768    0.668072   0.480262  
H29      H        0.287594   0.667898   0.467097  
C30      C        0.301864   0.66077    0.490286  
H30      H        0.312103   0.655496   0.483906  
C32      C        0.764899   0.721708   0.934356  
C36      C        0.70849    0.694838   0.970705  
Zn1      Zn       0.34117    0.400532   0.54109   
Zn2      Zn       0.292976   0.352279   0.590107  
Zn3      Zn       0.248959   0.308003   0.540506  
O1       O        0.342278   0.363455   0.526087  
O2       O        0.345786   0.385632   0.578495  
O3       O        0.328723   0.367808   0.595613  
N1       N        0.333287   0.407257   0.51568   
N2       N        0.346119   0.424447   0.553546  
N3       N        0.365822   0.387548   0.54146   
N5       N        0.319272   0.387552   0.552366  
N6       N        0.331238   0.376997   0.581723  
N7       N        0.300783   0.369898   0.570196  
N8       N        0.287523   0.364426   0.613567  
N9       N        0.308246   0.330324   0.596471  
N11      N        0.269462   0.343722   0.579625  
N12      N        0.251837   0.327507   0.55941   
N13      N        0.257421   0.315655   0.515697  
N14      N        0.265353   0.287722   0.549212  
N15      N        0.723682   0.798115   0.538265  
C2       C        0.32178    0.421356   0.509709  
C3       C        0.311746   0.433461   0.519696  
H3       H        0.311797   0.433301   0.532901  
C4       C        0.301631   0.445779   0.509905  
H4       H        0.294399   0.454703   0.516298  
C6       C        0.35594    0.439527   0.546712  
C7       C        0.365513   0.442214   0.530354  
H7       H        0.365501   0.433104   0.520896  
C8       C        0.3752     0.458725   0.528102  
H8       H        0.381998   0.460705   0.516994  
C9       C        0.382057   0.394895   0.548802  
H9       H        0.3836     0.407202   0.553105  
C11      C        0.303009   0.385139   0.543262  
H11      H        0.300005   0.390201   0.531501  
C12      C        0.316907   0.378109   0.568311  
C13      C        0.291615   0.374264   0.553784  
H13      H        0.279506   0.370303   0.550499  
C15      C        0.275378   0.359236   0.626866  
C16      C        0.764401   0.843814   0.628689  
H16      H        0.764597   0.8344     0.619496  
C17      C        0.753007   0.842174   0.644274  
H17      H        0.745206   0.831701   0.645502  
C20      C        0.268052   0.328932   0.568367  
H20      H        0.277798   0.320192   0.566902  
C21      C        0.252657   0.35284    0.577167  
C26      C        0.241699   0.342803   0.564856  
C28      C        0.27375    0.324317   0.509816  
C29      C        0.287684   0.33192    0.519743  
H29      H        0.287601   0.332094   0.532907  
C30      C        0.301866   0.339228   0.509712  
H30      H        0.312097   0.344497   0.516096  
C32      C        0.764899   0.7783     0.56564   
C36      C        0.708492   0.80516    0.529281  
Zn1      Zn       0.458912   0.658829   0.400524  
Zn2      Zn       0.409891   0.707022   0.352273  
Zn3      Zn       0.459493   0.751036   0.308005  
O1       O        0.473905   0.657721   0.363459  
O2       O        0.421516   0.65422    0.385626  
O3       O        0.404387   0.671278   0.367804  
N1       N        0.484318   0.666709   0.407256  
N2       N        0.446447   0.653876   0.424437  
N3       N        0.458542   0.634169   0.38756   
N5       N        0.447635   0.680735   0.38755   
N6       N        0.418277   0.668764   0.376997  
N7       N        0.429801   0.699203   0.369904  
N8       N        0.386429   0.712481   0.364422  
N9       N        0.403535   0.691762   0.33032   
N11      N        0.420378   0.730538   0.343721  
N12      N        0.440587   0.748161   0.327508  
N13      N        0.484299   0.742585   0.315653  
N14      N        0.450785   0.734637   0.287719  
N15      N        0.961741   0.776317   0.798112  
C2       C        0.490286   0.678226   0.421358  
C3       C        0.480301   0.688263   0.433453  
H3       H        0.467096   0.688198   0.433303  
C4       C        0.490099   0.698368   0.445774  
H4       H        0.483707   0.705601   0.4547    
C6       C        0.453294   0.644055   0.439527  
C7       C        0.469656   0.634488   0.442219  
H7       H        0.479102   0.634495   0.433105  
C8       C        0.471902   0.624791   0.458732  
H8       H        0.482998   0.618009   0.460696  
C9       C        0.451206   0.617942   0.394894  
H9       H        0.446895   0.616405   0.407204  
C11      C        0.456748   0.696992   0.385141  
H11      H        0.468493   0.699999   0.390202  
C12      C        0.431687   0.683089   0.378106  
C13      C        0.446217   0.708377   0.374265  
H13      H        0.449501   0.72051    0.370299  
C15      C        0.373139   0.724617   0.359239  
C16      C        0.871305   0.7356     0.843823  
H16      H        0.880499   0.735406   0.834401  
C17      C        0.855731   0.747005   0.842173  
H17      H        0.854499   0.754795   0.831699  
C20      C        0.431637   0.731953   0.328928  
H20      H        0.433093   0.722197   0.320196  
C21      C        0.422845   0.747335   0.352837  
C26      C        0.43515    0.758302   0.34279   
C28      C        0.490184   0.726254   0.324325  
C29      C        0.480267   0.712315   0.331918  
H29      H        0.467104   0.712401   0.332106  
C30      C        0.490286   0.698145   0.339233  
H30      H        0.483902   0.6879     0.344504  
C32      C        0.934361   0.735096   0.778303  
C36      C        0.97071    0.791509   0.80517   
Zn1      Zn       0.541085   0.658834   0.599476  
Zn2      Zn       0.590108   0.707013   0.647719  
Zn3      Zn       0.540507   0.751047   0.691998  
O1       O        0.526083   0.657724   0.636546  
O2       O        0.578487   0.654222   0.61437   
O3       O        0.595621   0.671276   0.632199  
N1       N        0.515685   0.666704   0.592741  
N2       N        0.55355    0.653878   0.575561  
N3       N        0.541468   0.634169   0.612447  
N5       N        0.552364   0.680725   0.612448  
N6       N        0.581714   0.668763   0.622999  
N7       N        0.570198   0.699207   0.630102  
N8       N        0.613567   0.712478   0.635575  
N9       N        0.596471   0.691757   0.669673  
N11      N        0.57962    0.730529   0.656285  
N12      N        0.559416   0.748162   0.672497  
N13      N        0.515695   0.742584   0.684342  
N14      N        0.549212   0.734637   0.712287  
N15      N        0.538254   0.776313   0.70189   
C2       C        0.509716   0.678219   0.578641  
C3       C        0.519699   0.68826    0.566544  
H3       H        0.532901   0.688196   0.566705  
C4       C        0.509913   0.698367   0.554224  
H4       H        0.516299   0.705606   0.5453    
C6       C        0.546709   0.644062   0.560464  
C7       C        0.530356   0.634487   0.557778  
H7       H        0.520899   0.634495   0.566897  
C8       C        0.528098   0.624801   0.541277  
H8       H        0.516999   0.617999   0.539305  
C9       C        0.548796   0.617944   0.60511   
H9       H        0.553094   0.616404   0.592803  
C11      C        0.543261   0.696994   0.614864  
H11      H        0.531502   0.699998   0.609803  
C12      C        0.568315   0.683092   0.621891  
C13      C        0.55378    0.708386   0.625741  
H13      H        0.550496   0.720503   0.629704  
C15      C        0.626863   0.72462    0.640767  
C16      C        0.628683   0.735604   0.656185  
H16      H        0.619497   0.735396   0.665598  
C17      C        0.644262   0.747002   0.657831  
H17      H        0.645501   0.7548     0.668307  
C20      C        0.568355   0.731943   0.671069  
H20      H        0.566901   0.722194   0.679799  
C21      C        0.577158   0.747341   0.64715   
C26      C        0.564856   0.758303   0.657205  
C28      C        0.509809   0.726254   0.67568   
C29      C        0.519738   0.712326   0.668083  
H29      H        0.532892   0.712395   0.667897  
C30      C        0.509702   0.698136   0.660768  
H30      H        0.516107   0.687897   0.655495  
C32      C        0.565638   0.735101   0.721694  
C36      C        0.529295   0.791511   0.69484   
Zn1      Zn       0.458909   0.341172   0.59947   
Zn2      Zn       0.40989    0.29298    0.647721  
Zn3      Zn       0.459492   0.24896    0.691996  
O1       O        0.473903   0.342279   0.636537  
O2       O        0.421516   0.345779   0.614372  
O3       O        0.404385   0.328723   0.632191  
N1       N        0.484317   0.333289   0.592742  
N2       N        0.446455   0.346124   0.575559  
N3       N        0.458536   0.36583    0.612457  
N5       N        0.44763    0.31927    0.612441  
N6       N        0.418276   0.331236   0.622999  
N7       N        0.429797   0.300789   0.6301    
N8       N        0.386434   0.28752    0.635573  
N9       N        0.403539   0.308238   0.669677  
N11      N        0.420379   0.269468   0.656288  
N12      N        0.440591   0.251845   0.672502  
N13      N        0.484294   0.257422   0.684337  
N14      N        0.450782   0.26536    0.71228   
N15      N        0.961739   0.723684   0.701891  
C2       C        0.490293   0.321774   0.578639  
C3       C        0.480304   0.311744   0.566536  
H3       H        0.467102   0.311796   0.5667    
C4       C        0.490091   0.301634   0.55422   
H4       H        0.483696   0.294402   0.545294  
C6       C        0.453291   0.355939   0.560475  
C7       C        0.469649   0.365507   0.557782  
H7       H        0.479101   0.365502   0.566894  
C8       C        0.471895   0.3752     0.541273  
H8       H        0.483002   0.381999   0.539292  
C9       C        0.451194   0.382067   0.605112  
H9       H        0.446902   0.383601   0.592806  
C11      C        0.456742   0.303004   0.614859  
H11      H        0.468506   0.299996   0.609798  
C12      C        0.431684   0.316911   0.62189   
C13      C        0.446219   0.291616   0.625739  
H13      H        0.4495     0.279509   0.629698  
C15      C        0.373136   0.275376   0.640764  
C16      C        0.871307   0.764399   0.656181  
H16      H        0.880504   0.764597   0.6656    
C17      C        0.85573    0.753002   0.657824  
H17      H        0.854498   0.745208   0.668301  
C20      C        0.431635   0.268049   0.671066  
H20      H        0.433091   0.2778     0.679803  
C21      C        0.422831   0.252662   0.647163  
C26      C        0.435146   0.241702   0.657202  
C28      C        0.490186   0.273751   0.675685  
C29      C        0.48026    0.287682   0.668081  
H29      H        0.467094   0.287602   0.667907  
C30      C        0.490292   0.301864   0.660774  
H30      H        0.4839     0.312095   0.655497  
C32      C        0.934361   0.764901   0.721704  
C36      C        0.970715   0.708491   0.694834  
Zn1      Zn       0.541091   0.341171   0.400535  
Zn2      Zn       0.590109   0.292981   0.352283  
Zn3      Zn       0.540506   0.248954   0.307997  
O1       O        0.526086   0.34228    0.363467  
O2       O        0.578498   0.345778   0.385626  
O3       O        0.595616   0.328713   0.367808  
N1       N        0.515677   0.333294   0.407256  
N2       N        0.553546   0.346118   0.424438  
N3       N        0.541462   0.365833   0.387547  
N5       N        0.552377   0.319274   0.387549  
N6       N        0.581718   0.331239   0.376994  
N7       N        0.570194   0.300789   0.369898  
N8       N        0.613568   0.287517   0.364426  
N9       N        0.596473   0.308243   0.330323  
N11      N        0.57962    0.26947    0.343712  
N12      N        0.559403   0.251838   0.3275    
N13      N        0.515698   0.257421   0.315668  
N14      N        0.549211   0.265355   0.287718  
N15      N        0.538259   0.723687   0.798114  
C2       C        0.509703   0.321778   0.421358  
C3       C        0.519702   0.311738   0.433455  
H3       H        0.532902   0.311794   0.433301  
C4       C        0.509913   0.301631   0.445775  
H4       H        0.516305   0.294396   0.454695  
C6       C        0.546703   0.355939   0.439531  
C7       C        0.530348   0.36551    0.442221  
H7       H        0.520896   0.365504   0.433099  
C8       C        0.528095   0.375206   0.458731  
H8       H        0.517007   0.381997   0.460695  
C9       C        0.548801   0.382052   0.394889  
H9       H        0.553107   0.383606   0.407202  
C11      C        0.543258   0.303011   0.385147  
H11      H        0.531508   0.299997   0.390198  
C12      C        0.568319   0.316912   0.378101  
C13      C        0.553781   0.291628   0.374261  
H13      H        0.550498   0.279508   0.3703    
C15      C        0.626862   0.275379   0.35925   
C16      C        0.628697   0.764397   0.843818  
H16      H        0.619501   0.764609   0.834401  
C17      C        0.644278   0.753      0.842171  
H17      H        0.645494   0.745198   0.831699  
C20      C        0.56836    0.268057   0.328927  
H20      H        0.566894   0.277803   0.3202    
C21      C        0.577164   0.252659   0.352846  
C26      C        0.564854   0.241707   0.342801  
C28      C        0.509818   0.273747   0.324315  
C29      C        0.519732   0.287682   0.331924  
H29      H        0.532899   0.2876     0.332104  
C30      C        0.509717   0.301861   0.339231  
H30      H        0.5161     0.312099   0.344506  
C32      C        0.56564    0.76491    0.778299  
C36      C        0.529292   0.708492   0.805161  
Zn1      Zn       0.458904   0.400532   0.341175  
Zn2      Zn       0.409886   0.35228    0.292985  
Zn3      Zn       0.459489   0.307993   0.248958  
O1       O        0.473909   0.363463   0.342283  
O2       O        0.421505   0.38563    0.345774  
O3       O        0.404379   0.367804   0.328717  
N1       N        0.484326   0.407261   0.33329   
N2       N        0.446449   0.424434   0.346122  
N3       N        0.458541   0.387551   0.365829  
N5       N        0.447626   0.387553   0.31927   
N6       N        0.418284   0.376998   0.331235  
N7       N        0.429801   0.369894   0.300793  
N8       N        0.386427   0.364422   0.287521  
N9       N        0.40353    0.330327   0.308238  
N11      N        0.420383   0.343716   0.269466  
N12      N        0.440591   0.327496   0.251842  
N13      N        0.484297   0.315664   0.257425  
N14      N        0.450784   0.287714   0.265359  
N15      N        0.461736   0.298106   0.223687  
C2       C        0.490291   0.421355   0.321781  
C3       C        0.480301   0.433459   0.311733  
H3       H        0.467093   0.433297   0.311797  
C4       C        0.49009    0.445779   0.301627  
H4       H        0.483698   0.454699   0.294391  
C6       C        0.453291   0.439527   0.355943  
C7       C        0.469646   0.442217   0.365514  
H7       H        0.479107   0.433104   0.3655    
C8       C        0.471908   0.458736   0.375202  
H8       H        0.482996   0.460699   0.381993  
C9       C        0.451194   0.394886   0.382056  
H9       H        0.446896   0.407206   0.383602  
C11      C        0.456737   0.385143   0.303014  
H11      H        0.468506   0.390196   0.299998  
C12      C        0.431684   0.378105   0.316908  
C13      C        0.446222   0.374265   0.291624  
H13      H        0.449505   0.370304   0.279504  
C15      C        0.373144   0.35924    0.275389  
C16      C        0.371317   0.343822   0.264405  
H16      H        0.380502   0.334401   0.264601  
C17      C        0.355736   0.342166   0.252997  
H17      H        0.354501   0.331701   0.245207  
C20      C        0.431643   0.328931   0.268053  
H20      H        0.433101   0.320196   0.277807  
C21      C        0.422842   0.352836   0.252668  
C26      C        0.435149   0.342805   0.241703  
C28      C        0.490196   0.324313   0.273748  
C29      C        0.480263   0.331921   0.287686  
H29      H        0.467095   0.3321     0.287604  
C30      C        0.490297   0.33923    0.301863  
H30      H        0.483894   0.344502   0.312103  
C32      C        0.434363   0.278299   0.264902  
C36      C        0.470711   0.305161   0.208484  
Zn1      Zn       0.541094   0.599474   0.341168  
Zn2      Zn       0.590105   0.647717   0.292984  
Zn3      Zn       0.540511   0.692      0.248956  
O1       O        0.526091   0.636533   0.342283  
O2       O        0.578498   0.61437    0.34578   
O3       O        0.595618   0.632195   0.328719  
N1       N        0.515678   0.592739   0.333293  
N2       N        0.553548   0.575564   0.346119  
N3       N        0.541458   0.612453   0.365834  
N5       N        0.552373   0.612445   0.319266  
N6       N        0.581718   0.622996   0.331239  
N7       N        0.570198   0.630096   0.300792  
N8       N        0.613569   0.635577   0.287516  
N9       N        0.596476   0.669676   0.308239  
N11      N        0.579615   0.656285   0.269472  
N12      N        0.559412   0.672506   0.251841  
N13      N        0.515709   0.684341   0.257418  
N14      N        0.549213   0.712276   0.265364  
N15      N        0.038256   0.201893   0.223693  
C2       C        0.509702   0.578635   0.321777  
C3       C        0.519699   0.566541   0.31174   
H3       H        0.532893   0.566696   0.311799  
C4       C        0.509911   0.554224   0.30163   
H4       H        0.516307   0.545298   0.294398  
C6       C        0.546704   0.560471   0.355943  
C7       C        0.530346   0.557779   0.36551   
H7       H        0.520902   0.566899   0.365498  
C8       C        0.5281     0.541269   0.375204  
H8       H        0.517001   0.539296   0.381995  
C9       C        0.548808   0.605116   0.382063  
H9       H        0.553093   0.592802   0.383605  
C11      C        0.543252   0.614855   0.303008  
H11      H        0.531497   0.609802   0.299992  
C12      C        0.568319   0.621894   0.316907  
C13      C        0.553776   0.625735   0.29162   
H13      H        0.550503   0.629702   0.279505  
C15      C        0.626859   0.64076    0.27538   
C16      C        0.128687   0.156173   0.264399  
H16      H        0.119499   0.16561    0.264599  
C17      C        0.144273   0.157834   0.253004  
H17      H        0.145504   0.168302   0.2452    
C20      C        0.56836    0.671062   0.268053  
H20      H        0.566903   0.6798     0.277804  
C21      C        0.577163   0.647159   0.252665  
C26      C        0.564849   0.657198   0.241706  
C28      C        0.509809   0.675682   0.273755  
C29      C        0.519742   0.668085   0.287678  
H29      H        0.532901   0.667903   0.287605  
C30      C        0.509711   0.660778   0.30186   
H30      H        0.516095   0.655494   0.312099  
C32      C        0.065634   0.221696   0.264901  
C36      C        0.029288   0.194844   0.208492  
Zn1      Zn       0.458909   0.599472   0.658838  
Zn2      Zn       0.409887   0.647715   0.707017  
Zn3      Zn       0.459496   0.692002   0.751043  
O1       O        0.473911   0.636542   0.657728  
O2       O        0.421508   0.614366   0.654226  
O3       O        0.404385   0.63219    0.671285  
N1       N        0.484321   0.592731   0.666714  
N2       N        0.446445   0.575557   0.653882  
N3       N        0.458546   0.612446   0.634171  
N5       N        0.447631   0.612444   0.680729  
N6       N        0.418281   0.622996   0.668767  
N7       N        0.429797   0.630098   0.699211  
N8       N        0.386436   0.635579   0.712474  
N9       N        0.403532   0.669677   0.691753  
N11      N        0.420375   0.656281   0.730533  
N12      N        0.440586   0.672501   0.748158  
N13      N        0.4843     0.684338   0.742588  
N14      N        0.450783   0.712283   0.734641  
N15      N        0.461741   0.201882   0.276313  
C2       C        0.490287   0.578645   0.678215  
C3       C        0.480296   0.56654    0.688264  
H3       H        0.467093   0.566701   0.6882    
C4       C        0.490081   0.55422    0.69837   
H4       H        0.483704   0.545304   0.705602  
C6       C        0.453293   0.560468   0.644058  
C7       C        0.469647   0.557783   0.634482  
H7       H        0.479096   0.566893   0.634499  
C8       C        0.471897   0.541274   0.624805  
H8       H        0.482996   0.539301   0.618003  
C9       C        0.451207   0.605114   0.61794   
H9       H        0.446901   0.592799   0.616408  
C11      C        0.456742   0.614868   0.69699   
H11      H        0.468493   0.609799   0.700002  
C12      C        0.43168    0.621887   0.683096  
C13      C        0.446222   0.625745   0.708382  
H13      H        0.449499   0.6297     0.720507  
C15      C        0.373132   0.640763   0.724624  
C16      C        0.371312   0.156177   0.235603  
H16      H        0.380498   0.1656     0.235406  
C17      C        0.355733   0.157824   0.247002  
H17      H        0.354494   0.1683     0.254799  
C20      C        0.43164    0.671065   0.731947  
H20      H        0.433094   0.679796   0.722197  
C21      C        0.422845   0.647154   0.747337  
C26      C        0.435147   0.657209   0.758299  
C28      C        0.490194   0.675684   0.72625   
C29      C        0.480265   0.668087   0.712322  
H29      H        0.467102   0.667893   0.712399  
C30      C        0.490293   0.660764   0.69814   
H30      H        0.483896   0.655499   0.687893  
C32      C        0.434365   0.221704   0.235103  
C36      C        0.470708   0.19484    0.291503  
Zn1      Zn       0.541091   0.400529   0.658825  
Zn2      Zn       0.590112   0.352277   0.707018  
Zn3      Zn       0.540513   0.307995   0.751045  
O1       O        0.52609    0.363455   0.657725  
O2       O        0.578487   0.38563    0.654216  
O3       O        0.595616   0.367808   0.671274  
N1       N        0.515684   0.40726    0.666705  
N2       N        0.553548   0.424433   0.65388   
N3       N        0.541464   0.387551   0.634178  
N5       N        0.552367   0.387554   0.680731  
N6       N        0.581725   0.377001   0.66876   
N7       N        0.570194   0.3699     0.699207  
N8       N        0.613566   0.364418   0.712485  
N9       N        0.596468   0.330324   0.691758  
N11      N        0.579625   0.343725   0.730534  
N12      N        0.559408   0.327504   0.748165  
N13      N        0.515703   0.315657   0.742581  
N14      N        0.54921    0.287715   0.734641  
N15      N        0.038262   0.298113   0.276309  
C2       C        0.509717   0.421362   0.678222  
C3       C        0.519702   0.433457   0.688259  
H3       H        0.532899   0.433299   0.688201  
C4       C        0.509915   0.445773   0.698369  
H4       H        0.516296   0.454704   0.705597  
C6       C        0.546709   0.439531   0.644051  
C7       C        0.530347   0.442223   0.634484  
H7       H        0.520893   0.433101   0.634498  
C8       C        0.528104   0.458723   0.6248    
H8       H        0.517005   0.4607     0.618005  
C9       C        0.548808   0.394893   0.617944  
H9       H        0.5531     0.4072     0.616409  
C11      C        0.543266   0.385139   0.696993  
H11      H        0.531502   0.390199   0.700003  
C12      C        0.568315   0.37811    0.683085  
C13      C        0.553777   0.374261   0.70838   
H13      H        0.550502   0.370303   0.720506  
C15      C        0.626855   0.359235   0.724621  
C16      C        0.12869    0.343816   0.2356    
H16      H        0.119504   0.334401   0.235398  
C17      C        0.144272   0.342173   0.246997  
H17      H        0.145496   0.331701   0.254805  
C20      C        0.568366   0.328932   0.731949  
H20      H        0.566902   0.320192   0.7222    
C21      C        0.577158   0.352841   0.74733   
C26      C        0.564853   0.342794   0.758298  
C28      C        0.50981    0.324321   0.726258  
C29      C        0.519747   0.331916   0.712317  
H29      H        0.532898   0.33211    0.712397  
C30      C        0.509709   0.339229   0.698149  
H30      H        0.516093   0.3445     0.687903  
C32      C        0.065634   0.278295   0.235096  
C36      C        0.029285   0.305162   0.291509  
Zn1      Zn       0.400531   0.658826   0.541097  
Zn2      Zn       0.352272   0.707019   0.59011   
Zn3      Zn       0.307995   0.751038   0.540509  
O1       O        0.363463   0.657714   0.526089  
O2       O        0.385636   0.654218   0.578493  
O3       O        0.367809   0.671282   0.595625  
N1       N        0.407261   0.666714   0.515679  
N2       N        0.424432   0.653877   0.553548  
N3       N        0.387549   0.634175   0.541461  
N5       N        0.387546   0.680733   0.552369  
N6       N        0.376999   0.668762   0.581713  
N7       N        0.369902   0.699207   0.570207  
N8       N        0.364422   0.712482   0.613576  
N9       N        0.330321   0.691767   0.59647   
N11      N        0.343725   0.73053    0.579624  
N12      N        0.3275     0.748157   0.559411  
N13      N        0.31566    0.742573   0.515697  
N14      N        0.287722   0.734634   0.549216  
N15      N        0.298109   0.27631    0.038263  
C2       C        0.421358   0.678222   0.509715  
C3       C        0.433463   0.688259   0.519695  
H3       H        0.433293   0.688198   0.532898  
C4       C        0.445785   0.698372   0.509914  
H4       H        0.454704   0.7056     0.516299  
C6       C        0.43953    0.644061   0.546716  
C7       C        0.442213   0.634491   0.530354  
H7       H        0.433106   0.634504   0.5209    
C8       C        0.458734   0.624802   0.528095  
H8       H        0.460697   0.618001   0.516995  
C9       C        0.394891   0.617938   0.548806  
H9       H        0.407205   0.616401   0.553105  
C11      C        0.385134   0.696991   0.54326   
H11      H        0.390198   0.700001   0.531495  
C12      C        0.378106   0.683095   0.56832   
C13      C        0.374258   0.708387   0.553781  
H13      H        0.370303   0.720502   0.550499  
C15      C        0.359235   0.72462    0.62686   
C16      C        0.343816   0.2356     0.128682  
H16      H        0.334399   0.235402   0.119499  
C17      C        0.342167   0.247005   0.144267  
H17      H        0.331704   0.254796   0.145505  
C20      C        0.328932   0.731946   0.568356  
H20      H        0.320202   0.722193   0.566905  
C21      C        0.352834   0.747333   0.577157  
C26      C        0.342796   0.758307   0.564852  
C28      C        0.324318   0.726251   0.509808  
C29      C        0.331924   0.712319   0.519745  
H29      H        0.3321     0.712398   0.532906  
C30      C        0.339233   0.698143   0.509712  
H30      H        0.3445     0.687895   0.516102  
C32      C        0.278301   0.235102   0.065643  
C36      C        0.305161   0.291514   0.029287  
Zn1      Zn       0.599477   0.658831   0.458909  
Zn2      Zn       0.647719   0.707018   0.409899  
Zn3      Zn       0.692005   0.751045   0.459494  
O1       O        0.636537   0.657715   0.473911  
O2       O        0.614378   0.654219   0.421509  
O3       O        0.632188   0.671287   0.404382  
N1       N        0.592742   0.666709   0.484327  
N2       N        0.575564   0.653878   0.44645   
N3       N        0.61245    0.634168   0.458541  
N5       N        0.612453   0.680728   0.447628  
N6       N        0.622993   0.668765   0.418283  
N7       N        0.630097   0.699203   0.429799  
N8       N        0.635586   0.712481   0.386436  
N9       N        0.669684   0.691761   0.403533  
N11      N        0.656284   0.730531   0.420387  
N12      N        0.672504   0.748166   0.440593  
N13      N        0.684345   0.74258    0.484294  
N14      N        0.712275   0.73464    0.45079   
N15      N        0.201883   0.276308   0.461736  
C2       C        0.578636   0.678216   0.490292  
C3       C        0.566537   0.688264   0.480301  
H3       H        0.566692   0.688202   0.467105  
C4       C        0.554228   0.698372   0.490093  
H4       H        0.545301   0.705607   0.4837    
C6       C        0.560466   0.644058   0.453292  
C7       C        0.557779   0.634491   0.469656  
H7       H        0.566903   0.634503   0.479104  
C8       C        0.541274   0.624797   0.471907  
H8       H        0.539301   0.617998   0.482996  
C9       C        0.605111   0.617948   0.451198  
H9       H        0.592795   0.616393   0.446898  
C11      C        0.614855   0.696992   0.456747  
H11      H        0.609805   0.700004   0.468503  
C12      C        0.621896   0.683086   0.431676  
C13      C        0.62574    0.708376   0.446225  
H13      H        0.629705   0.720496   0.4495    
C15      C        0.640756   0.724622   0.37314   
C16      C        0.156177   0.2356     0.371315  
H16      H        0.165602   0.235406   0.380498  
C17      C        0.157831   0.246998   0.355726  
H17      H        0.168301   0.254804   0.3545    
C20      C        0.671071   0.731945   0.431646  
H20      H        0.679803   0.722201   0.433105  
C21      C        0.64716    0.747335   0.422837  
C26      C        0.657201   0.75829    0.43515   
C28      C        0.675675   0.726247   0.490187  
C29      C        0.668081   0.712323   0.480255  
H29      H        0.667897   0.712398   0.467096  
C30      C        0.660775   0.69814    0.490286  
H30      H        0.655501   0.687893   0.483904  
C32      C        0.221696   0.235093   0.43436   
C36      C        0.194838   0.291508   0.470705  
Zn1      Zn       0.599468   0.341166   0.54109   
Zn2      Zn       0.647718   0.292983   0.590116  
Zn3      Zn       0.692001   0.248966   0.540511  
O1       O        0.636544   0.342276   0.526094  
O2       O        0.614367   0.345775   0.578493  
O3       O        0.632185   0.328725   0.595622  
N1       N        0.592731   0.333293   0.515686  
N2       N        0.57556    0.346114   0.553554  
N3       N        0.612448   0.36583    0.541457  
N5       N        0.612446   0.31927    0.55237   
N6       N        0.623002   0.331238   0.58173   
N7       N        0.630096   0.300791   0.570203  
N8       N        0.635586   0.287527   0.613571  
N9       N        0.669678   0.30824    0.596462  
N11      N        0.656283   0.269468   0.579629  
N12      N        0.672503   0.251841   0.559415  
N13      N        0.684339   0.257417   0.515706  
N14      N        0.712282   0.265355   0.549211  
N15      N        0.201882   0.223686   0.038258  
C2       C        0.578637   0.321784   0.509705  
C3       C        0.566542   0.31173    0.5197    
H3       H        0.566695   0.311805   0.532905  
C4       C        0.554221   0.30162    0.50991   
H4       H        0.545299   0.294408   0.516301  
C6       C        0.560471   0.355939   0.546707  
C7       C        0.557782   0.365517   0.530352  
H7       H        0.566892   0.365503   0.520905  
C8       C        0.541271   0.375193   0.528099  
H8       H        0.539298   0.381999   0.517004  
C9       C        0.605109   0.38207    0.548799  
H9       H        0.592797   0.3836     0.553105  
C11      C        0.614862   0.303017   0.543259  
H11      H        0.609798   0.3        0.531508  
C12      C        0.621892   0.316906   0.568327  
C13      C        0.625738   0.291622   0.553773  
H13      H        0.629693   0.2795     0.5505    
C15      C        0.640759   0.275373   0.626861  
C16      C        0.156176   0.264401   0.128692  
H16      H        0.1656     0.264598   0.119505  
C17      C        0.157831   0.252994   0.144271  
H17      H        0.168295   0.245201   0.145503  
C20      C        0.671065   0.268049   0.568356  
H20      H        0.679802   0.2778     0.56691   
C21      C        0.647163   0.252662   0.577162  
C26      C        0.657203   0.241705   0.564851  
C28      C        0.67568    0.273755   0.509807  
C29      C        0.66808    0.287684   0.519734  
H29      H        0.667899   0.287599   0.532902  
C30      C        0.660773   0.301857   0.509713  
H30      H        0.655495   0.312103   0.516096  
C32      C        0.221706   0.264897   0.065638  
C36      C        0.194837   0.208492   0.029284  
Zn1      Zn       0.400532   0.341168   0.458905  
Zn2      Zn       0.352281   0.292978   0.409889  
Zn3      Zn       0.307997   0.248958   0.459491  
O1       O        0.363457   0.342277   0.473915  
O2       O        0.385628   0.345779   0.421507  
O3       O        0.367815   0.328721   0.404387  
N1       N        0.407263   0.33329    0.484313  
N2       N        0.424433   0.34612    0.446451  
N3       N        0.38755    0.365833   0.458546  
N5       N        0.387553   0.319266   0.447628  
N6       N        0.377005   0.331242   0.418279  
N7       N        0.369895   0.300787   0.429794  
N8       N        0.364416   0.28752    0.386437  
N9       N        0.330322   0.308246   0.403533  
N11      N        0.343716   0.269471   0.420372  
N12      N        0.327502   0.251836   0.440592  
N13      N        0.315664   0.257421   0.484305  
N14      N        0.287723   0.265354   0.450792  
N15      N        0.298109   0.223696   0.461739  
C2       C        0.421367   0.321785   0.490295  
C3       C        0.433455   0.311743   0.480299  
H3       H        0.433298   0.3118     0.467101  
C4       C        0.445776   0.301636   0.490093  
H4       H        0.454701   0.294399   0.483698  
C6       C        0.439531   0.355948   0.453291  
C7       C        0.442223   0.365507   0.469644  
H7       H        0.433098   0.365495   0.479097  
C8       C        0.45873    0.375198   0.471901  
H8       H        0.460702   0.381999   0.483001  
C9       C        0.394894   0.382057   0.451194  
H9       H        0.407192   0.383605   0.446905  
C11      C        0.385146   0.303006   0.456739  
H11      H        0.390196   0.3        0.4685    
C12      C        0.378114   0.316904   0.431677  
C13      C        0.374262   0.291622   0.446226  
H13      H        0.370297   0.279499   0.449496  
C15      C        0.359239   0.275373   0.373143  
C16      C        0.343814   0.264399   0.371308  
H16      H        0.334402   0.264606   0.380501  
C17      C        0.342174   0.253005   0.355731  
H17      H        0.331694   0.245203   0.354504  
C20      C        0.328929   0.268057   0.431637  
H20      H        0.320195   0.277798   0.433099  
C21      C        0.352841   0.252667   0.422839  
C26      C        0.342797   0.241704   0.435152  
C28      C        0.324313   0.273749   0.490188  
C29      C        0.33192    0.287679   0.480253  
H29      H        0.332102   0.287601   0.467091  
C30      C        0.339229   0.30185    0.49029   
H30      H        0.344493   0.312097   0.483901  
C32      C        0.278293   0.264902   0.434361  
C36      C        0.305156   0.208495   0.470712  
Zn1      Zn       0.65883    0.458903   0.599472  
Zn2      Zn       0.707016   0.409888   0.647723  
Zn3      Zn       0.751033   0.459489   0.691998  
O1       O        0.657721   0.473911   0.636543  
O2       O        0.654224   0.421513   0.614377  
O3       O        0.671283   0.404379   0.632196  
N1       N        0.666713   0.484321   0.592738  
N2       N        0.653873   0.446446   0.575557  
N3       N        0.634166   0.458543   0.612445  
N5       N        0.68073    0.447629   0.612449  
N6       N        0.668757   0.418283   0.622993  
N7       N        0.699204   0.4298     0.630102  
N8       N        0.712483   0.386424   0.635579  
N9       N        0.69176    0.40353    0.669671  
N11      N        0.730528   0.420386   0.656282  
N12      N        0.748159   0.440592   0.672506  
N13      N        0.742584   0.484298   0.684346  
N14      N        0.734638   0.450782   0.712281  
N15      N        0.276307   0.461742   0.201894  
C2       C        0.67822    0.490288   0.578643  
C3       C        0.688267   0.480299   0.566539  
H3       H        0.688199   0.467094   0.5667    
C4       C        0.698372   0.490091   0.554221  
H4       H        0.705607   0.483697   0.545299  
C6       C        0.644058   0.453287   0.56047   
C7       C        0.634484   0.469647   0.557781  
H7       H        0.634502   0.479102   0.566894  
C8       C        0.624804   0.471904   0.541266  
H8       H        0.618003   0.482998   0.539299  
C9       C        0.617942   0.451199   0.605118  
H9       H        0.616404   0.446903   0.592806  
C11      C        0.696988   0.456737   0.614858  
H11      H        0.700004   0.468497   0.609797  
C12      C        0.683095   0.431681   0.621895  
C13      C        0.708376   0.446227   0.62574   
H13      H        0.720502   0.449499   0.629696  
C15      C        0.72462    0.373134   0.64076   
C16      C        0.235598   0.371315   0.156178  
H16      H        0.235397   0.380502   0.165597  
C17      C        0.246998   0.355737   0.15783   
H17      H        0.254798   0.354495   0.168298  
C20      C        0.731951   0.431644   0.671073  
H20      H        0.722191   0.4331     0.679802  
C21      C        0.747338   0.42284    0.647168  
C26      C        0.758299   0.435154   0.657202  
C28      C        0.726251   0.490186   0.675677  
C29      C        0.712315   0.480258   0.668076  
H29      H        0.712401   0.467093   0.667902  
C30      C        0.698139   0.49029    0.660765  
H30      H        0.687903   0.483896   0.655506  
C32      C        0.235104   0.434356   0.2217    
C36      C        0.291512   0.470715   0.19484   
Zn1      Zn       0.658833   0.541094   0.400528  
Zn2      Zn       0.707019   0.590103   0.352283  
Zn3      Zn       0.751044   0.54051    0.307999  
O1       O        0.657717   0.526083   0.363459  
O2       O        0.654228   0.578493   0.385633  
O3       O        0.67128    0.595617   0.367804  
N1       N        0.666708   0.515676   0.40726   
N2       N        0.653884   0.55355    0.424443  
N3       N        0.634173   0.541456   0.387552  
N5       N        0.680731   0.55237    0.387548  
N6       N        0.668756   0.581719   0.377001  
N7       N        0.699211   0.570192   0.369902  
N8       N        0.71248    0.613572   0.364421  
N9       N        0.691757   0.596475   0.33032   
N11      N        0.730533   0.579622   0.343726  
N12      N        0.748166   0.559414   0.327503  
N13      N        0.742582   0.515701   0.315651  
N14      N        0.734642   0.549208   0.287725  
N15      N        0.276313   0.038257   0.298114  
C2       C        0.678215   0.509705   0.42136   
C3       C        0.688257   0.519701   0.433457  
H3       H        0.688197   0.532897   0.433305  
C4       C        0.698371   0.50991    0.445775  
H4       H        0.705604   0.516302   0.454698  
C6       C        0.644055   0.546708   0.439531  
C7       C        0.634493   0.530344   0.442223  
H7       H        0.634502   0.5209     0.4331    
C8       C        0.624795   0.528098   0.458729  
H8       H        0.618005   0.516998   0.460701  
C9       C        0.617946   0.548807   0.394891  
H9       H        0.616395   0.553101   0.407206  
C11      C        0.696985   0.543258   0.385143  
H11      H        0.699998   0.531506   0.390197  
C12      C        0.683096   0.568316   0.378105  
C13      C        0.708379   0.55378    0.374268  
H13      H        0.720497   0.550503   0.370299  
C15      C        0.724617   0.626862   0.35924   
C16      C        0.235594   0.128691   0.343823  
H16      H        0.235406   0.119506   0.334402  
C17      C        0.247007   0.144269   0.342172  
H17      H        0.254797   0.145503   0.331693  
C20      C        0.731942   0.568363   0.328936  
H20      H        0.722197   0.566898   0.320196  
C21      C        0.747338   0.577163   0.352844  
C26      C        0.758295   0.564852   0.342807  
C28      C        0.726245   0.509812   0.324321  
C29      C        0.712318   0.519747   0.331916  
H29      H        0.712405   0.532897   0.332104  
C30      C        0.698148   0.509711   0.33923   
H30      H        0.687898   0.516093   0.344501  
C32      C        0.235096   0.065632   0.2783    
C36      C        0.29151    0.029291   0.305161  
Zn1      Zn       0.34117    0.458906   0.400532  
Zn2      Zn       0.292973   0.409893   0.352281  
Zn3      Zn       0.248963   0.459487   0.307995  
O1       O        0.342274   0.473908   0.363457  
O2       O        0.345778   0.421507   0.385636  
O3       O        0.328723   0.404374   0.367808  
N1       N        0.333291   0.484313   0.407266  
N2       N        0.34612    0.446448   0.424448  
N3       N        0.365831   0.458535   0.387545  
N5       N        0.319273   0.447622   0.387549  
N6       N        0.331231   0.418276   0.376998  
N7       N        0.300783   0.4298     0.3699    
N8       N        0.287524   0.386435   0.364418  
N9       N        0.308239   0.403535   0.330317  
N11      N        0.269469   0.420373   0.34372   
N12      N        0.251844   0.440587   0.327502  
N13      N        0.257415   0.484295   0.31566   
N14      N        0.265354   0.450793   0.287721  
N15      N        0.223684   0.461735   0.298108  
C2       C        0.321786   0.490293   0.421362  
C3       C        0.311738   0.480292   0.433458  
H3       H        0.3118     0.467094   0.433299  
C4       C        0.301622   0.490086   0.445777  
H4       H        0.294407   0.483704   0.454705  
C6       C        0.355942   0.453287   0.439526  
C7       C        0.365511   0.469653   0.442217  
H7       H        0.365495   0.479099   0.433104  
C8       C        0.375202   0.471899   0.458735  
H8       H        0.381992   0.483      0.460698  
C9       C        0.382058   0.451202   0.394879  
H9       H        0.383598   0.446892   0.407199  
C11      C        0.303009   0.45675    0.385139  
H11      H        0.299992   0.468496   0.390198  
C12      C        0.316903   0.431678   0.37811   
C13      C        0.291619   0.446224   0.374257  
H13      H        0.279494   0.449497   0.370299  
C15      C        0.275373   0.37314    0.359243  
C16      C        0.264394   0.37131    0.343818  
H16      H        0.264602   0.380492   0.334401  
C17      C        0.252999   0.355724   0.342168  
H17      H        0.245201   0.354496   0.331703  
C20      C        0.268046   0.43164    0.328928  
H20      H        0.277801   0.433096   0.320205  
C21      C        0.252659   0.422846   0.352842  
C26      C        0.2417     0.435149   0.342792  
C28      C        0.273758   0.490189   0.324319  
C29      C        0.287678   0.480265   0.331913  
H29      H        0.287599   0.467095   0.332097  
C30      C        0.301856   0.490286   0.339225  
H30      H        0.312104   0.483896   0.344498  
C32      C        0.264902   0.434361   0.278299  
C36      C        0.208497   0.470706   0.305158  
Zn1      Zn       0.341176   0.541088   0.59947   
Zn2      Zn       0.292982   0.590105   0.647717  
Zn3      Zn       0.248958   0.54051    0.692004  
O1       O        0.342277   0.526087   0.636544  
O2       O        0.345779   0.578487   0.614365  
O3       O        0.328723   0.59562    0.632194  
N1       N        0.333297   0.51568    0.592737  
N2       N        0.346113   0.553554   0.575566  
N3       N        0.365827   0.541462   0.612453  
N5       N        0.319275   0.55237    0.612455  
N6       N        0.331241   0.581724   0.622998  
N7       N        0.300791   0.570196   0.6301    
N8       N        0.287521   0.61356    0.635583  
N9       N        0.308237   0.59647    0.669673  
N11      N        0.269468   0.579625   0.656278  
N12      N        0.25184    0.559407   0.672501  
N13      N        0.257416   0.515702   0.684339  
N14      N        0.265356   0.549206   0.712277  
N15      N        0.223691   0.03826    0.201885  
C2       C        0.321777   0.509711   0.578631  
C3       C        0.311735   0.519705   0.566541  
H3       H        0.311804   0.532898   0.566705  
C4       C        0.301632   0.50991    0.554223  
H4       H        0.294398   0.516305   0.545301  
C6       C        0.355942   0.546715   0.560468  
C7       C        0.365509   0.530351   0.557774  
H7       H        0.365498   0.520895   0.566897  
C8       C        0.375197   0.528096   0.541266  
H8       H        0.381998   0.517      0.539298  
C9       C        0.382059   0.548806   0.605109  
H9       H        0.383592   0.553102   0.592803  
C11      C        0.303016   0.543262   0.614865  
H11      H        0.300003   0.531498   0.609804  
C12      C        0.316915   0.568317   0.621892  
C13      C        0.291623   0.553775   0.62574   
H13      H        0.279505   0.550497   0.629703  
C15      C        0.275379   0.626852   0.640761  
C16      C        0.264398   0.128684   0.156176  
H16      H        0.264597   0.119502   0.165593  
C17      C        0.252999   0.144273   0.157823  
H17      H        0.245199   0.145501   0.168307  
C20      C        0.268058   0.56836    0.671069  
H20      H        0.277801   0.566894   0.679801  
C21      C        0.252663   0.577167   0.647161  
C26      C        0.241703   0.564851   0.657205  
C28      C        0.273744   0.509809   0.675679  
C29      C        0.287683   0.519741   0.668078  
H29      H        0.287604   0.532906   0.667899  
C30      C        0.301855   0.509709   0.660776  
H30      H        0.312096   0.516098   0.655504  
C32      C        0.264893   0.065644   0.221703  
C36      C        0.208495   0.029284   0.19484   
N4       N        0.642283   0.529136   0.357723  
C10      C        0.62945    0.537663   0.370544  
C31      C        0.720747   0.540525   0.279252  
H31      H        0.716997   0.528494   0.282998  
N4       N        0.357716   0.470867   0.357723  
C10      C        0.370551   0.462346   0.370553  
C31      C        0.279251   0.459472   0.279257  
H31      H        0.283005   0.471499   0.282997  
N4       N        0.357726   0.529131   0.642275  
C10      C        0.370557   0.537662   0.629454  
C31      C        0.279251   0.540529   0.720758  
H31      H        0.282998   0.528495   0.717005  
N4       N        0.642272   0.470872   0.642284  
C10      C        0.629448   0.462342   0.629446  
C31      C        0.720751   0.459467   0.720752  
H31      H        0.717008   0.471502   0.717002  
N4       N        0.357716   0.642275   0.529131  
C10      C        0.370551   0.629455   0.537661  
C31      C        0.279251   0.720751   0.540536  
H31      H        0.283005   0.717001   0.528499  
N4       N        0.357726   0.357723   0.470867  
C10      C        0.370557   0.370553   0.462346  
C31      C        0.279251   0.27925    0.459479  
H31      H        0.282998   0.282993   0.471503  
N4       N        0.642272   0.357724   0.529135  
C10      C        0.629448   0.370552   0.537656  
C31      C        0.720751   0.279246   0.540531  
H31      H        0.717008   0.282996   0.528496  
N4       N        0.642283   0.642285   0.470872  
C10      C        0.62945    0.629454   0.462335  
C31      C        0.720747   0.720746   0.459473  
H31      H        0.716997   0.717001   0.471504  
N4       N        0.529133   0.357728   0.64228   
C10      C        0.537667   0.370553   0.629455  
C31      C        0.540524   0.279253   0.720755  
H31      H        0.528496   0.283      0.717008  
N4       N        0.470865   0.357718   0.357723  
C10      C        0.462338   0.370553   0.370546  
C31      C        0.459468   0.279248   0.27925   
H31      H        0.471499   0.283004   0.282995  
N4       N        0.529135   0.642285   0.357723  
C10      C        0.537662   0.629457   0.370551  
C31      C        0.540531   0.720749   0.279259  
H31      H        0.528504   0.716999   0.283009  
N4       N        0.470865   0.642275   0.64228   
C10      C        0.462338   0.629452   0.629445  
C31      C        0.459468   0.720748   0.72075   
H31      H        0.471499   0.717003   0.716994  
N4       N        0.52913    0.642276   0.642279  
C10      C        0.537665   0.62945    0.629447  
C31      C        0.540527   0.720746   0.720752  
H31      H        0.528504   0.716998   0.716999  
N4       N        0.470868   0.357727   0.642281  
C10      C        0.46234    0.370555   0.629453  
C31      C        0.459464   0.279255   0.720753  
H31      H        0.471503   0.282999   0.717009  
N4       N        0.52913    0.357719   0.357722  
C10      C        0.537665   0.370551   0.370549  
C31      C        0.540527   0.279246   0.279252  
H31      H        0.528504   0.282999   0.283     
N4       N        0.470869   0.642284   0.357724  
C10      C        0.462347   0.629454   0.370554  
C31      C        0.459471   0.720751   0.279257  
H31      H        0.471499   0.717004   0.283004  
N4       N        0.642278   0.357719   0.470871  
C10      C        0.629452   0.370557   0.462342  
C31      C        0.720743   0.279253   0.459476  
H31      H        0.716998   0.283001   0.471495  
N4       N        0.35772    0.357727   0.529132  
C10      C        0.370553   0.370548   0.537659  
C31      C        0.279248   0.279248   0.540529  
H31      H        0.282997   0.282994   0.528498  
N4       N        0.357723   0.64228    0.470876  
C10      C        0.370554   0.62945    0.462338  
C31      C        0.279244   0.720749   0.459471  
H31      H        0.283006   0.717001   0.471504  
N4       N        0.642277   0.642279   0.529126  
C10      C        0.629458   0.629453   0.537664  
C31      C        0.720743   0.720754   0.540533  
H31      H        0.716996   0.717001   0.528499  
N4       N        0.357723   0.529132   0.357727  
C10      C        0.370554   0.53766    0.370548  
C31      C        0.279244   0.540527   0.279249  
H31      H        0.283006   0.528494   0.282997  
N4       N        0.35772    0.470876   0.642281  
C10      C        0.370553   0.462339   0.62945   
C31      C        0.279248   0.459469   0.72075   
H31      H        0.282997   0.4715     0.717004  
N4       N        0.642278   0.529127   0.642279  
C10      C        0.629452   0.537666   0.629451  
C31      C        0.720743   0.540532   0.720754  
H31      H        0.716998   0.528503   0.716997  
N4       N        0.642277   0.470872   0.357719  
C10      C        0.629458   0.462344   0.370555  
C31      C        0.720743   0.459475   0.279254  
H31      H        0.716996   0.471499   0.282997  
C1       C        0.60048    0.500004   0.339633  
H1       H        0.610696   0.500001   0.347999  
C27      C        0.688949   0.500002   0.24903   
H27      H        0.695302   0.499993   0.237502  
C1       C        0.399512   0.500002   0.339635  
H1       H        0.3893     0.499994   0.348006  
C27      C        0.311048   0.499999   0.249033  
H27      H        0.304701   0.499995   0.2375    
C1       C        0.399523   0.500008   0.660371  
H1       H        0.389299   0.499993   0.652003  
C27      C        0.311054   0.5        0.750964  
H27      H        0.304693   0.500001   0.762499  
C1       C        0.600483   0.500002   0.660377  
H1       H        0.610694   0.5        0.651996  
C27      C        0.688955   0.500003   0.750961  
H27      H        0.695293   0.499999   0.762502  
C1       C        0.339629   0.600482   0.500003  
H1       H        0.347997   0.610705   0.500004  
C27      C        0.249038   0.688957   0.499998  
H27      H        0.237499   0.695297   0.500004  
C1       C        0.339635   0.399518   0.499993  
H1       H        0.348002   0.389297   0.50001   
C27      C        0.24904    0.311045   0.499996  
H27      H        0.237501   0.304695   0.5       
C1       C        0.660366   0.399513   0.499999  
H1       H        0.651998   0.389299   0.500008  
C27      C        0.750965   0.311045   0.499996  
H27      H        0.762496   0.304697   0.499998  
C1       C        0.660367   0.600484   0.5       
H1       H        0.652004   0.610701   0.500007  
C27      C        0.750962   0.688957   0.499998  
H27      H        0.762494   0.695299   0.500001  
C1       C        0.500006   0.339634   0.60048   
H1       H        0.499993   0.347998   0.610702  
C27      C        0.5        0.249044   0.688954  
H27      H        0.499994   0.237504   0.695304  
C1       C        0.5        0.339624   0.399516  
H1       H        0.5        0.347999   0.3893    
C27      C        0.499997   0.249042   0.311042  
H27      H        0.499992   0.237501   0.304702  
C1       C        0.499997   0.660368   0.399514  
H1       H        0.500002   0.651996   0.3893    
C27      C        0.500003   0.750968   0.31105   
H27      H        0.500001   0.7625     0.304708  
C1       C        0.499995   0.66037    0.600486  
H1       H        0.499995   0.651995   0.610701  
C27      C        0.500006   0.75096    0.688951  
H27      H        0.500003   0.762494   0.6953    
C1       C        0.5        0.600482   0.660374  
H1       H        0.5        0.610698   0.651999  
C27      C        0.499997   0.688956   0.750956  
H27      H        0.499992   0.695296   0.762497  
C1       C        0.500006   0.399518   0.660364  
H1       H        0.499993   0.389296   0.652     
C27      C        0.5        0.311054   0.750964  
H27      H        0.499994   0.304704   0.762504  
C1       C        0.499995   0.399512   0.339628  
H1       H        0.499995   0.389297   0.348003  
C27      C        0.500006   0.311047   0.249038  
H27      H        0.500003   0.304698   0.237504  
C1       C        0.499997   0.600484   0.33963   
H1       H        0.500002   0.610699   0.348002  
C27      C        0.500003   0.688958   0.24904   
H27      H        0.500001   0.6953     0.237508  
C1       C        0.600483   0.339631   0.500006  
H1       H        0.610694   0.348002   0.499998  
C27      C        0.688955   0.249037   0.499995  
H27      H        0.695293   0.237497   0.499999  
C1       C        0.399523   0.339637   0.5       
H1       H        0.389299   0.347995   0.500005  
C27      C        0.311054   0.249034   0.499998  
H27      H        0.304693   0.237499   0.499997  
C1       C        0.399512   0.660373   0.500006  
H1       H        0.3893     0.651992   0.500004  
C27      C        0.311048   0.750965   0.499999  
H27      H        0.304701   0.762498   0.500003  
C1       C        0.60048    0.660375   0.500004  
H1       H        0.610696   0.651999   0.499997  
C27      C        0.688949   0.750968   0.499996  
H27      H        0.695302   0.762496   0.500005  
C1       C        0.339629   0.499995   0.399517  
H1       H        0.347997   0.500004   0.389303  
C27      C        0.249038   0.5        0.311041  
H27      H        0.237499   0.499994   0.304701  
C1       C        0.339635   0.500005   0.60048   
H1       H        0.348002   0.499998   0.610711  
C27      C        0.24904    0.500002   0.688953  
H27      H        0.237501   0.499998   0.695303  
C1       C        0.660366   0.499999   0.600485  
H1       H        0.651998   0.5        0.610709  
C27      C        0.750965   0.500002   0.688953  
H27      H        0.762496   0.5        0.695301  
C1       C        0.660367   0.499998   0.399514  
H1       H        0.652004   0.5        0.389307  
C27      C        0.750962   0.5        0.311041  
H27      H        0.762494   0.499997   0.304699  
C5       C        0.570629   0.570629   0.340947  
H5       H        0.5786     0.578597   0.334194  
C14      C        0.619602   0.619612   0.294256  
H14      H        0.6129     0.612903   0.303394  
C5       C        0.429365   0.429368   0.340953  
H5       H        0.421395   0.421395   0.334197  
C14      C        0.380389   0.380386   0.294257  
H14      H        0.387093   0.387102   0.303407  
C5       C        0.429368   0.570624   0.65905   
H5       H        0.421399   0.578602   0.665801  
C14      C        0.380392   0.619611   0.705742  
H14      H        0.387102   0.612903   0.696605  
C5       C        0.570628   0.429366   0.659053  
H5       H        0.578603   0.421401   0.665804  
C14      C        0.619614   0.380397   0.70575   
H14      H        0.612901   0.387099   0.6966    
C5       C        0.34095    0.570627   0.570636  
H5       H        0.334203   0.578602   0.578604  
C14      C        0.294259   0.619607   0.619606  
H14      H        0.3034     0.612898   0.612898  
C5       C        0.34095    0.429362   0.429371  
H5       H        0.334203   0.421404   0.421406  
C14      C        0.294259   0.380392   0.380391  
H14      H        0.3034     0.3871     0.3871    
C5       C        0.659043   0.429373   0.570635  
H5       H        0.665796   0.421403   0.578605  
C14      C        0.705744   0.380391   0.619617  
H14      H        0.696594   0.387101   0.612907  
C5       C        0.659046   0.570636   0.429372  
H5       H        0.665796   0.578608   0.4214    
C14      C        0.705747   0.61961    0.380398  
H14      H        0.696602   0.612908   0.3871    
C5       C        0.570628   0.340945   0.570632  
H5       H        0.578603   0.334194   0.578597  
C14      C        0.619614   0.294257   0.619611  
H14      H        0.612901   0.303398   0.612899  
C5       C        0.429368   0.340948   0.429374  
H5       H        0.421399   0.334197   0.421396  
C14      C        0.380392   0.294256   0.380388  
H14      H        0.387102   0.303403   0.387105  
C5       C        0.570629   0.659051   0.429369  
H5       H        0.5786     0.665804   0.421401  
C14      C        0.619602   0.705752   0.380396  
H14      H        0.6129     0.696604   0.387095  
C5       C        0.429365   0.659045   0.57063   
H5       H        0.421395   0.665801   0.578603  
C14      C        0.380389   0.705741   0.619612  
H14      H        0.387093   0.696601   0.612906  
C5       C        0.570629   0.570626   0.659049  
H5       H        0.5786     0.578599   0.665805  
C14      C        0.619606   0.619608   0.705745  
H14      H        0.612901   0.612902   0.696605  
C5       C        0.429374   0.429373   0.659047  
H5       H        0.421403   0.421405   0.6658    
C14      C        0.380392   0.380392   0.705756  
H14      H        0.387103   0.387099   0.6966    
C5       C        0.570627   0.42937    0.340951  
H5       H        0.578604   0.4214     0.334193  
C14      C        0.619611   0.380392   0.294252  
H14      H        0.6129     0.387109   0.303399  
C5       C        0.429367   0.570628   0.340949  
H5       H        0.421399   0.578601   0.33419   
C14      C        0.380389   0.619615   0.294253  
H14      H        0.387101   0.612903   0.303394  
C5       C        0.570629   0.340949   0.429372  
H5       H        0.5786     0.334194   0.421399  
C14      C        0.619606   0.294253   0.38039   
H14      H        0.612901   0.303403   0.387105  
C5       C        0.429374   0.340951   0.570625  
H5       H        0.421403   0.334198   0.578593  
C14      C        0.380392   0.294252   0.619616  
H14      H        0.387103   0.303398   0.612899  
C5       C        0.429367   0.659049   0.42937   
H5       H        0.421399   0.665808   0.421397  
C14      C        0.380389   0.705755   0.380393  
H14      H        0.387101   0.696605   0.387095  
C5       C        0.570627   0.659047   0.570628  
H5       H        0.578604   0.665805   0.578598  
C14      C        0.619611   0.705746   0.619606  
H14      H        0.6129     0.696609   0.612898  
C5       C        0.340952   0.570631   0.429377  
H5       H        0.334199   0.578601   0.421406  
C14      C        0.294251   0.619613   0.380395  
H14      H        0.3034     0.612903   0.387105  
C5       C        0.340956   0.429376   0.570632  
H5       H        0.334206   0.421404   0.578603  
C14      C        0.294248   0.380394   0.619614  
H14      H        0.3034     0.387104   0.612904  
C5       C        0.659045   0.570632   0.570631  
H5       H        0.6658     0.578608   0.578598  
C14      C        0.705755   0.619604   0.619609  
H14      H        0.696602   0.612903   0.612894  
C5       C        0.659045   0.429367   0.429366  
H5       H        0.6658     0.42141    0.4214    
C14      C        0.705755   0.380389   0.380394  
H14      H        0.696602   0.387104   0.387095  
C35      C        0.21876    0.043031   0.218757  
H35      H        0.226901   0.049505   0.226895  
C35      C        0.281247   0.456967   0.218754  
H35      H        0.273093   0.450504   0.226902  
C35      C        0.281237   0.043032   0.281235  
H35      H        0.273106   0.049504   0.273099  
C35      C        0.218758   0.456962   0.281238  
H35      H        0.226902   0.4505     0.273109  
C35      C        0.218758   0.218756   0.043032  
H35      H        0.226902   0.226895   0.049504  
C35      C        0.21876    0.281237   0.456963  
H35      H        0.226901   0.273109   0.450499  
C35      C        0.281247   0.28124    0.043027  
H35      H        0.273093   0.273102   0.0495    
C35      C        0.281237   0.218759   0.456962  
H35      H        0.273106   0.226905   0.4505    
C35      C        0.043033   0.218758   0.218757  
H35      H        0.049501   0.226901   0.22689   
C35      C        0.456962   0.218757   0.281237  
H35      H        0.450496   0.226896   0.273099  
C35      C        0.043033   0.281237   0.281236  
H35      H        0.049501   0.273104   0.273094  
C35      C        0.456974   0.28124    0.218754  
H35      H        0.450494   0.273098   0.226896  
C35      C        0.543029   0.718762   0.78124   
H35      H        0.549501   0.726896   0.773105  
C35      C        0.956969   0.781244   0.781237  
H35      H        0.950502   0.773102   0.773104  
C35      C        0.543033   0.781237   0.718765  
H35      H        0.549498   0.773099   0.726903  
C35      C        0.956969   0.718765   0.718758  
H35      H        0.950502   0.726898   0.7269    
C35      C        0.718756   0.718762   0.956967  
H35      H        0.726901   0.726892   0.950501  
C35      C        0.781242   0.718765   0.543031  
H35      H        0.773102   0.726903   0.549504  
C35      C        0.781236   0.781238   0.95697   
H35      H        0.773092   0.773099   0.950498  
C35      C        0.718765   0.781243   0.543032  
H35      H        0.726897   0.773097   0.549494  
C35      C        0.718756   0.543035   0.78124   
H35      H        0.726901   0.549491   0.7731    
C35      C        0.718765   0.95697    0.718759  
H35      H        0.726897   0.950498   0.726895  
C35      C        0.781236   0.543032   0.718764  
H35      H        0.773092   0.549504   0.726903  
C35      C        0.781242   0.956971   0.781237  
H35      H        0.773102   0.950498   0.773099  
N10      N        0.678011   0.567709   0.32199   
O4       O        0.666818   0.559937   0.312213  
O4       O        0.687794   0.559927   0.33318   
C9A      C        0.680033   0.586693   0.319968  
C8A      C        0.675285   0.614865   0.311872  
H8A      H        0.670495   0.6256     0.305895  
C8A      C        0.688131   0.614866   0.324719  
H8A      H        0.694095   0.625601   0.329496  
N10      N        0.321994   0.432287   0.321994  
O4       O        0.333187   0.440072   0.31221   
O4       O        0.312214   0.44007    0.333189  
C9A      C        0.31997    0.413292   0.319973  
C8A      C        0.324717   0.385139   0.311872  
H8A      H        0.329497   0.374408   0.305896  
C8A      C        0.311868   0.385142   0.324717  
H8A      H        0.305902   0.374402   0.329503  
N10      N        0.321988   0.567711   0.678005  
O4       O        0.333182   0.559922   0.687791  
O4       O        0.312205   0.559932   0.666824  
C9A      C        0.31997    0.5867     0.680031  
C8A      C        0.324721   0.614853   0.688132  
H8A      H        0.329497   0.625592   0.6941    
C8A      C        0.311863   0.614858   0.675279  
H8A      H        0.305898   0.625591   0.6705    
C8B      C        0.686097   0.397597   0.699695  
H8B      H        0.187604   0.394205   0.212298  
C8B      C        0.699699   0.397601   0.686098  
H8B      H        0.2123     0.394204   0.187601  
C9B      C        0.675297   0.407504   0.675294  
H9B      H        0.667208   0.413996   0.667196  
N10      N        0.321994   0.678005   0.567711  
O4       O        0.312214   0.666818   0.559938  
O4       O        0.333187   0.687788   0.559926  
C9A      C        0.31997    0.680025   0.586706  
C8A      C        0.311868   0.675281   0.614856  
H8A      H        0.305902   0.670495   0.625596  
C8A      C        0.324717   0.688126   0.614859  
H8A      H        0.329497   0.694102   0.62559   
N10      N        0.321988   0.321993   0.432287  
O4       O        0.312205   0.333184   0.440076  
O4       O        0.333182   0.312207   0.440076  
C9A      C        0.31997    0.319967   0.413298  
C8A      C        0.311863   0.324719   0.38514   
H8A      H        0.305898   0.329498   0.374407  
C8A      C        0.324721   0.311866   0.385145  
H8A      H        0.329497   0.305898   0.374406  
N10      N        0.678005   0.321991   0.567708  
O4       O        0.687796   0.33318    0.559927  
O4       O        0.666822   0.312211   0.559939  
C9A      C        0.680029   0.31996    0.5867    
C8A      C        0.688124   0.324723   0.614862  
H8A      H        0.694103   0.329501   0.625595  
C8A      C        0.675286   0.311872   0.614864  
H8A      H        0.670496   0.3059     0.625596  
N10      N        0.678011   0.678008   0.432289  
O4       O        0.687794   0.666818   0.440071  
O4       O        0.666818   0.687795   0.440071  
C9A      C        0.680033   0.68003    0.413305  
C8A      C        0.688131   0.675279   0.385132  
H8A      H        0.694095   0.670502   0.374397  
C8A      C        0.675285   0.688136   0.385143  
H8A      H        0.670495   0.694103   0.374398  
N10      N        0.567711   0.321995   0.678013  
O4       O        0.559931   0.312207   0.666824  
O4       O        0.559931   0.333174   0.687791  
C9A      C        0.586704   0.319971   0.680037  
C8A      C        0.614862   0.31187    0.67529   
H8A      H        0.625599   0.305899   0.670508  
C8A      C        0.614862   0.324718   0.688138  
H8A      H        0.625599   0.3295     0.694109  
N10      N        0.432293   0.321983   0.321988  
O4       O        0.440074   0.312201   0.333181  
O4       O        0.440071   0.33318    0.312202  
C9A      C        0.413295   0.319966   0.319971  
C8A      C        0.385144   0.311869   0.324719  
H8A      H        0.374395   0.305899   0.329494  
C8A      C        0.385136   0.324718   0.31187   
H8A      H        0.374402   0.3295     0.305893  
N10      N        0.567712   0.678013   0.321995  
O4       O        0.559934   0.687786   0.333179  
O4       O        0.559934   0.666819   0.312212  
C9A      C        0.586696   0.680035   0.319973  
C8A      C        0.614866   0.688134   0.324722  
H8A      H        0.625602   0.694103   0.329506  
C8A      C        0.614866   0.675286   0.311874  
H8A      H        0.625602   0.670502   0.305904  
C8B      C        0.397605   0.699696   0.686099  
H8B      H        0.394201   0.212305   0.187604  
C8B      C        0.397595   0.6861     0.699695  
H8B      H        0.394201   0.187609   0.2123    
C9B      C        0.4075     0.675303   0.675296  
H9B      H        0.413998   0.667206   0.667196  
N10      N        0.567702   0.678011   0.678014  
O4       O        0.559932   0.666822   0.687792  
O4       O        0.559932   0.687787   0.666827  
C9A      C        0.5867     0.680029   0.680031  
C8A      C        0.614859   0.675276   0.688132  
H8A      H        0.625601   0.670502   0.694101  
C8A      C        0.614859   0.688134   0.675275  
H8A      H        0.625608   0.694103   0.6705    
N10      N        0.432291   0.321999   0.678008  
O4       O        0.440069   0.333183   0.687782  
O4       O        0.440069   0.312216   0.666815  
C9A      C        0.413298   0.319969   0.680038  
C8A      C        0.385137   0.324726   0.68813   
H8A      H        0.3744     0.32951    0.694099  
C8A      C        0.385137   0.311878   0.675281  
H8A      H        0.3744     0.305909   0.670498  
N10      N        0.567702   0.321985   0.321987  
O4       O        0.559932   0.333171   0.312211  
O4       O        0.559932   0.312206   0.333176  
C9A      C        0.5867     0.319967   0.319969  
C8A      C        0.614859   0.324723   0.311864  
H8A      H        0.625608   0.329498   0.305895  
C8A      C        0.614859   0.311866   0.324722  
H8A      H        0.625601   0.305897   0.329496  
N10      N        0.432291   0.678017   0.321991  
O4       O        0.440064   0.66682    0.312211  
O4       O        0.440064   0.687787   0.333178  
C9A      C        0.413291   0.680033   0.319975  
C8A      C        0.385144   0.67528    0.311879  
H8A      H        0.374396   0.670504   0.305902  
C8A      C        0.385144   0.688129   0.324727  
H8A      H        0.374396   0.694105   0.329504  
N10      N        0.678012   0.321984   0.432297  
O4       O        0.666816   0.312214   0.440068  
O4       O        0.687793   0.33318    0.440079  
C9A      C        0.680025   0.319969   0.413296  
C8A      C        0.675277   0.311868   0.385143  
H8A      H        0.670505   0.3059     0.374403  
C8A      C        0.688135   0.324721   0.385138  
H8A      H        0.694101   0.329508   0.374397  
N10      N        0.321992   0.321994   0.567705  
O4       O        0.333185   0.312217   0.559933  
O4       O        0.312209   0.333184   0.559923  
C9A      C        0.319962   0.319964   0.586697  
C8A      C        0.324718   0.311876   0.61486   
H8A      H        0.329507   0.3059     0.625596  
C8A      C        0.311872   0.324723   0.614862  
H8A      H        0.305908   0.3295     0.625597  
C8B      C        0.313906   0.699699   0.397593  
H8B      H        0.812399   0.712296   0.894195  
C8B      C        0.300304   0.686102   0.397597  
H8B      H        0.787703   0.6876     0.894194  
C9B      C        0.324705   0.675298   0.4075    
H9B      H        0.332806   0.667194   0.413998  
C8B      C        0.686101   0.699701   0.602403  
H8B      H        0.687598   0.712303   0.605803  
C8B      C        0.699704   0.686093   0.602398  
H8B      H        0.712294   0.687606   0.605802  
C9B      C        0.675302   0.6753     0.592509  
H9B      H        0.667197   0.667201   0.585997  
N10      N        0.32199    0.567704   0.321994  
O4       O        0.312207   0.559931   0.333176  
O4       O        0.333172   0.559935   0.312214  
C9A      C        0.319966   0.586696   0.319964  
C8A      C        0.311871   0.614858   0.324727  
H8A      H        0.3059     0.6256     0.329497  
C8A      C        0.324717   0.614868   0.311868  
H8A      H        0.329507   0.6256     0.305896  
C8B      C        0.300295   0.397603   0.686096  
H8B      H        0.787702   0.894197   0.687597  
C8B      C        0.313899   0.397598   0.699694  
H8B      H        0.812399   0.894197   0.712294  
C9B      C        0.324702   0.407498   0.6753    
H9B      H        0.332798   0.413993   0.667199  
C8B      C        0.699702   0.6024     0.686091  
H8B      H        0.7123     0.605804   0.687604  
C8B      C        0.6861     0.602406   0.699698  
H8B      H        0.687604   0.605805   0.712301  
C9B      C        0.6753     0.592506   0.675303  
H9B      H        0.667196   0.586002   0.667196  
C8B      C        0.699704   0.3976     0.313905  
H8B      H        0.712294   0.8942     0.812396  
C8B      C        0.686101   0.397595   0.300297  
H8B      H        0.687598   0.894199   0.787699  
C9B      C        0.675302   0.407499   0.324708  
H9B      H        0.667197   0.414001   0.332798  
H32      H        0.219294   0.075499   0.256603  
H32      H        0.243391   0.075495   0.280698  
C33      C        0.282798   0.418704   0.254294  
H33      H        0.292403   0.418606   0.245402  
C33      C        0.254293   0.418696   0.2828    
H33      H        0.245405   0.418594   0.292401  
C34      C        0.272002   0.403797   0.258096  
H34      H        0.273899   0.392793   0.2511    
C34      C        0.258098   0.403801   0.271998  
H34      H        0.2511     0.392791   0.2739    
H32      H        0.280697   0.075497   0.243403  
H32      H        0.2566     0.075491   0.2193    
H32      H        0.219297   0.424508   0.243398  
H32      H        0.243401   0.424497   0.219299  
H32      H        0.256602   0.219298   0.075493  
H32      H        0.280695   0.243403   0.075498  
C33      C        0.254298   0.282801   0.418695  
H33      H        0.245403   0.292394   0.418601  
C33      C        0.282806   0.254298   0.4187    
H33      H        0.292399   0.245403   0.418605  
C34      C        0.258094   0.272001   0.403798  
H34      H        0.251105   0.273892   0.392799  
C34      C        0.272003   0.258093   0.403799  
H34      H        0.273902   0.251095   0.392799  
H32      H        0.243401   0.280696   0.075497  
H32      H        0.219297   0.256606   0.075496  
H32      H        0.243391   0.219297   0.424499  
H32      H        0.219294   0.243401   0.424505  
H32      H        0.075502   0.256596   0.219307  
H32      H        0.075502   0.280697   0.243407  
C33      C        0.418701   0.254289   0.282801  
H33      H        0.418599   0.245397   0.292398  
C33      C        0.418698   0.2828     0.25429   
H33      H        0.418601   0.292401   0.245395  
C34      C        0.403802   0.258098   0.272     
H34      H        0.392801   0.251098   0.273908  
C34      C        0.403797   0.272002   0.258096  
H34      H        0.392792   0.273903   0.251103  
C33      C        0.081307   0.245697   0.282795  
H33      H        0.081401   0.254605   0.292396  
C33      C        0.081307   0.2172     0.254297  
H33      H        0.081401   0.207608   0.245399  
C34      C        0.096206   0.241902   0.271998  
H34      H        0.107203   0.248898   0.273894  
C34      C        0.096206   0.228006   0.258102  
H34      H        0.107203   0.2261     0.251096  
C33      C        0.418698   0.245704   0.217194  
H33      H        0.418601   0.2546     0.207593  
C33      C        0.418701   0.217193   0.245705  
H33      H        0.418599   0.207596   0.254597  
C34      C        0.403797   0.241898   0.227992  
H34      H        0.392792   0.248901   0.226101  
C34      C        0.403802   0.227994   0.241896  
H34      H        0.392801   0.226096   0.248906  
C33      C        0.581304   0.717202   0.745704  
H33      H        0.581402   0.707601   0.754599  
C33      C        0.581294   0.745705   0.717201  
H33      H        0.581396   0.754597   0.707604  
C34      C        0.596205   0.728      0.741898  
H34      H        0.607203   0.726091   0.748899  
C34      C        0.5962     0.741904   0.727994  
H34      H        0.607194   0.748897   0.726094  
C33      C        0.918696   0.782803   0.745697  
H33      H        0.918602   0.792404   0.754605  
C33      C        0.918696   0.754305   0.717199  
H33      H        0.918602   0.745397   0.707598  
C34      C        0.903796   0.772006   0.741902  
H34      H        0.8928     0.773902   0.748898  
C34      C        0.903796   0.7581     0.727996  
H34      H        0.8928     0.751104   0.7261    
H32      H        0.575498   0.7807     0.756594  
H32      H        0.575503   0.756601   0.780693  
H32      H        0.924493   0.719297   0.756594  
H32      H        0.924493   0.743398   0.780695  
C33      C        0.717204   0.754302   0.918704  
H33      H        0.7076     0.7454     0.918596  
C33      C        0.745702   0.7828     0.918704  
H33      H        0.754601   0.792396   0.918608  
C34      C        0.728001   0.758104   0.903797  
H34      H        0.726096   0.7511     0.892801  
C34      C        0.741904   0.772006   0.9038    
H34      H        0.748895   0.7739     0.892799  
C33      C        0.782796   0.754301   0.581295  
H33      H        0.792404   0.7454     0.581402  
C33      C        0.754299   0.782798   0.581296  
H33      H        0.745396   0.792407   0.581402  
C34      C        0.772001   0.7581     0.596201  
H34      H        0.773907   0.751097   0.6072    
C34      C        0.758103   0.772002   0.596205  
H34      H        0.751099   0.7739     0.607194  
C33      C        0.782803   0.745701   0.918706  
H33      H        0.792393   0.754599   0.918603  
C33      C        0.754306   0.717194   0.918697  
H33      H        0.745403   0.707598   0.918597  
C34      C        0.772006   0.741903   0.9038    
H34      H        0.773897   0.748903   0.892804  
C34      C        0.758103   0.728001   0.903796  
H34      H        0.751098   0.726103   0.892806  
C33      C        0.717197   0.745704   0.581294  
H33      H        0.707596   0.754601   0.581406  
C33      C        0.745704   0.717201   0.581299  
H33      H        0.754592   0.7076     0.581401  
C34      C        0.727992   0.741901   0.596202  
H34      H        0.726093   0.7489     0.607203  
C34      C        0.741901   0.727993   0.596204  
H34      H        0.748901   0.726096   0.607208  
C33      C        0.754306   0.581295   0.782799  
H33      H        0.745403   0.581405   0.792404  
C33      C        0.782803   0.581296   0.754301  
H33      H        0.792393   0.581399   0.745403  
C34      C        0.758103   0.596206   0.772001  
H34      H        0.751098   0.607196   0.773899  
C34      C        0.772006   0.596202   0.758098  
H34      H        0.773897   0.607198   0.751099  
H32      H        0.756604   0.924499   0.719304  
H32      H        0.780701   0.924496   0.743398  
H32      H        0.7434     0.575501   0.719297  
H32      H        0.719308   0.575506   0.743402  
H32      H        0.743395   0.924503   0.780702  
H32      H        0.719297   0.924497   0.756598  
C37      C        0.677503   0.520398   0.204895  
H37      H        0.668098   0.520396   0.214102  
C37      C        0.204905   0.520405   0.677501  
H37      H        0.214098   0.520402   0.668102  
C38      C        0.674392   0.512      0.188301  
H38      H        0.661803   0.507202   0.188496  
C38      C        0.188298   0.512009   0.6744    
H38      H        0.188495   0.507198   0.661799  
H36      H        0.317199   0.475994   0.207502  
H36      H        0.792498   0.475992   0.6828    
H36      H        0.317195   0.524      0.7925    
H36      H        0.792498   0.523999   0.317205  
C37      C        0.677498   0.479604   0.795099  
H37      H        0.668105   0.479602   0.785896  
C37      C        0.204901   0.479596   0.322494  
H37      H        0.214098   0.479602   0.33189   
C38      C        0.674399   0.488      0.811695  
H38      H        0.6618     0.492799   0.811499  
C38      C        0.1883     0.488005   0.325601  
H38      H        0.188502   0.492799   0.338201  
H36      H        0.207497   0.682799   0.523999  
H36      H        0.682797   0.207501   0.524001  
C37      C        0.204905   0.322497   0.479593  
H37      H        0.214098   0.331896   0.479596  
C37      C        0.677503   0.795103   0.4796    
H37      H        0.668098   0.785896   0.479602  
C38      C        0.188298   0.325608   0.487999  
H38      H        0.188495   0.338199   0.4928    
C38      C        0.674392   0.811697   0.487998  
H38      H        0.661803   0.811502   0.492796  
C37      C        0.795104   0.322504   0.520403  
H37      H        0.785895   0.331905   0.520404  
C37      C        0.322507   0.795099   0.520401  
H37      H        0.3319     0.785896   0.520399  
C38      C        0.811693   0.325601   0.511999  
H38      H        0.811501   0.338194   0.507201  
C38      C        0.325594   0.811704   0.512003  
H38      H        0.338203   0.811492   0.507201  
C37      C        0.795107   0.677504   0.479604  
H37      H        0.785894   0.668102   0.479604  
C37      C        0.322497   0.204903   0.479592  
H37      H        0.331894   0.214103   0.479598  
C38      C        0.811695   0.674397   0.488     
H38      H        0.811499   0.661805   0.492796  
C38      C        0.3256     0.188308   0.488001  
H38      H        0.338203   0.188498   0.492805  
H36      H        0.523997   0.207502   0.682804  
H36      H        0.524      0.682799   0.207507  
H36      H        0.475995   0.207497   0.317196  
H36      H        0.475995   0.682803   0.792501  
H36      H        0.524      0.792501   0.317209  
H36      H        0.523997   0.317204   0.792505  
C37      C        0.479598   0.795104   0.677497  
H37      H        0.479594   0.785898   0.668096  
C37      C        0.479598   0.322501   0.204894  
H37      H        0.479594   0.331902   0.2141    
C38      C        0.488      0.811695   0.674401  
H38      H        0.492795   0.811503   0.661803  
C38      C        0.488      0.325597   0.188303  
H38      H        0.492795   0.338204   0.188505  
H36      H        0.523997   0.682802   0.792502  
H36      H        0.523997   0.207496   0.317196  
C37      C        0.479602   0.322503   0.7951    
H37      H        0.479602   0.331896   0.785903  
C37      C        0.479604   0.795101   0.322502  
H37      H        0.479595   0.785896   0.331903  
C38      C        0.487997   0.325602   0.811704  
H38      H        0.492803   0.338202   0.811503  
C38      C        0.488001   0.811705   0.325602  
H38      H        0.492793   0.811502   0.338203  
C37      C        0.520407   0.322498   0.204897  
H37      H        0.520403   0.3319     0.214102  
C37      C        0.520407   0.795101   0.6775    
H37      H        0.520403   0.785896   0.668098  
C38      C        0.512005   0.325601   0.188299  
H38      H        0.507201   0.33821    0.1885    
C38      C        0.512005   0.811699   0.674397  
H38      H        0.507201   0.811508   0.661798  
H36      H        0.475998   0.6828     0.207506  
H36      H        0.475995   0.207503   0.682803  
H36      H        0.682796   0.207498   0.475998  
H36      H        0.207496   0.682796   0.475996  
C37      C        0.322499   0.204899   0.520394  
H37      H        0.331897   0.214099   0.5204    
C37      C        0.795098   0.677505   0.5204    
H37      H        0.785896   0.668098   0.520406  
C38      C        0.325602   0.188297   0.512004  
H38      H        0.3382     0.188501   0.507198  
C38      C        0.811705   0.674404   0.512005  
H38      H        0.811499   0.661795   0.507202  
H36      H        0.317198   0.792493   0.476001  
H36      H        0.792498   0.317196   0.476003  
H36      H        0.682799   0.792496   0.524004  
H36      H        0.207497   0.317201   0.524003  
H36      H        0.207496   0.524002   0.317202  
H36      H        0.682796   0.524      0.7925    
C37      C        0.204907   0.479603   0.677505  
H37      H        0.214101   0.479601   0.668106  
C37      C        0.677506   0.479596   0.204899  
H37      H        0.668101   0.479594   0.214106  
C38      C        0.1883     0.487996   0.674401  
H38      H        0.188504   0.4928     0.661801  
C38      C        0.674403   0.488005   0.188303  
H38      H        0.661792   0.492801   0.188501  
C37      C        0.795102   0.520406   0.6775    
H37      H        0.785904   0.5204     0.668104  
C37      C        0.322504   0.520398   0.204895  
H37      H        0.331898   0.520401   0.214098  
C38      C        0.811702   0.512007   0.674402  
H38      H        0.8115     0.507204   0.661793  
C38      C        0.325603   0.512002   0.188299  
H38      H        0.338202   0.507204   0.188495  
C37      C        0.795098   0.479598   0.322493  
H37      H        0.785896   0.479592   0.3319    
C37      C        0.322499   0.479604   0.795099  
H37      H        0.331897   0.479598   0.785899  
C38      C        0.811705   0.488003   0.325604  
H38      H        0.811499   0.492796   0.338203  
C38      C        0.325602   0.487994   0.811701  
H38      H        0.3382     0.4928     0.811497  
C22      C        0.630712   0.584684   0.245826  
H22      H        0.623501   0.593002   0.253098  
C23      C        0.625354   0.579899   0.228655  
H23      H        0.614498   0.585397   0.223705  
C25      C        0.650854   0.559773   0.224122  
H25      H        0.657605   0.551193   0.216798  
C24      C        0.634888   0.567306   0.217823  
H24      H        0.630208   0.564004   0.206004  
C22      C        0.36929    0.415326   0.245822  
H22      H        0.376499   0.406995   0.253096  
C23      C        0.374647   0.420098   0.228653  
H23      H        0.385503   0.414598   0.223694  
C25      C        0.34915    0.440222   0.224119  
H25      H        0.342393   0.448797   0.216797  
C24      C        0.365127   0.432696   0.217817  
H24      H        0.369801   0.435994   0.206     
C22      C        0.369292   0.584685   0.754182  
H22      H        0.376501   0.593006   0.746899  
C23      C        0.374649   0.579896   0.771349  
H23      H        0.385492   0.585402   0.776303  
C25      C        0.349154   0.559769   0.775886  
H25      H        0.342397   0.551198   0.783203  
C24      C        0.365121   0.567299   0.782184  
H24      H        0.369796   0.564004   0.793998  
C22      C        0.63071    0.415329   0.754177  
H22      H        0.623504   0.407001   0.746895  
C23      C        0.625359   0.420097   0.771345  
H23      H        0.614504   0.4146     0.776294  
C25      C        0.65085    0.440227   0.775875  
H25      H        0.657595   0.4488     0.783205  
C24      C        0.634881   0.432708   0.782179  
H24      H        0.630192   0.436004   0.794004  
C22      C        0.245818   0.63072    0.584676  
H22      H        0.253098   0.623502   0.592991  
C23      C        0.22865    0.625356   0.579895  
H23      H        0.223698   0.614508   0.585396  
C25      C        0.224118   0.65085    0.559767  
H25      H        0.216796   0.657595   0.551201  
C24      C        0.217829   0.634878   0.567298  
H24      H        0.205993   0.630201   0.564003  
C22      C        0.24582    0.369298   0.415322  
H22      H        0.253107   0.376502   0.407001  
C23      C        0.228651   0.374646   0.4201    
H23      H        0.223696   0.385493   0.414599  
C25      C        0.224121   0.349148   0.440231  
H25      H        0.216799   0.342397   0.448803  
C24      C        0.217822   0.365117   0.432703  
H24      H        0.205999   0.369798   0.435994  
C22      C        0.754182   0.369286   0.584675  
H22      H        0.746894   0.376498   0.592994  
C23      C        0.771344   0.374648   0.5799    
H23      H        0.776298   0.385506   0.585397  
C25      C        0.775882   0.349142   0.559771  
H25      H        0.783203   0.342393   0.551203  
C24      C        0.782179   0.365121   0.567295  
H24      H        0.794      0.369801   0.564006  
C22      C        0.754185   0.63071    0.415325  
H22      H        0.746906   0.623502   0.407002  
C23      C        0.771353   0.625347   0.420101  
H23      H        0.776294   0.614495   0.414598  
C25      C        0.775887   0.650851   0.440232  
H25      H        0.783203   0.657598   0.448802  
C24      C        0.782187   0.634882   0.432698  
H24      H        0.794005   0.630206   0.436003  
C22      C        0.584677   0.245828   0.630709  
H22      H        0.593005   0.2531     0.623496  
C23      C        0.579901   0.228644   0.625349  
H23      H        0.585395   0.223701   0.614506  
C25      C        0.559766   0.224121   0.65085   
H25      H        0.5512     0.216797   0.657605  
C24      C        0.567298   0.21782    0.634881  
H24      H        0.564      0.206006   0.630204  
C22      C        0.415326   0.245819   0.369283  
H22      H        0.407001   0.253102   0.376493  
C23      C        0.420106   0.228648   0.374643  
H23      H        0.4146     0.223708   0.385499  
C25      C        0.440226   0.224121   0.349145  
H25      H        0.448792   0.216801   0.342402  
C24      C        0.432704   0.217823   0.365118  
H24      H        0.435999   0.205992   0.3698    
C22      C        0.584677   0.754186   0.369293  
H22      H        0.593003   0.746901   0.376499  
C23      C        0.579896   0.771353   0.37465   
H23      H        0.585392   0.776304   0.385505  
C25      C        0.559768   0.775882   0.349144  
H25      H        0.551196   0.783199   0.342395  
C24      C        0.5673     0.782183   0.365112  
H24      H        0.564      0.794008   0.369799  
C22      C        0.415326   0.754181   0.630713  
H22      H        0.406997   0.746901   0.6235    
C23      C        0.420094   0.771352   0.625353  
H23      H        0.414599   0.776309   0.614501  
C25      C        0.440225   0.775879   0.650851  
H25      H        0.448801   0.783192   0.657601  
C24      C        0.432704   0.782178   0.634877  
H24      H        0.435999   0.794      0.630203  
C22      C        0.584677   0.630717   0.754177  
H22      H        0.592997   0.623496   0.746905  
C23      C        0.579901   0.625349   0.771355  
H23      H        0.585404   0.614505   0.776305  
C25      C        0.55977    0.650847   0.775883  
H25      H        0.551194   0.657597   0.783196  
C24      C        0.567299   0.634881   0.782174  
H24      H        0.563996   0.6302     0.794004  
H21      H        0.416996   0.3641     0.7508    
H26      H        0.439092   0.345902   0.770506  
C22      C        0.584677   0.369287   0.245815  
H22      H        0.593002   0.376497   0.253098  
C23      C        0.579896   0.374648   0.228644  
H23      H        0.585402   0.385503   0.223703  
C25      C        0.559776   0.349149   0.224117  
H25      H        0.551203   0.342399   0.216804  
C24      C        0.567299   0.365122   0.217819  
H24      H        0.563996   0.369796   0.205996  
C22      C        0.415326   0.630713   0.245824  
H22      H        0.406998   0.6235     0.253096  
C23      C        0.420094   0.625345   0.228648  
H23      H        0.414599   0.614502   0.223705  
C25      C        0.440228   0.650846   0.224124  
H25      H        0.448794   0.657601   0.216801  
C24      C        0.432697   0.634877   0.217824  
H24      H        0.436003   0.630208   0.206001  
C22      C        0.630712   0.245827   0.415322  
H22      H        0.623495   0.253092   0.406999  
C23      C        0.625348   0.228649   0.420102  
H23      H        0.614499   0.223698   0.414594  
C25      C        0.650845   0.224115   0.440226  
H25      H        0.657602   0.216794   0.448801  
C24      C        0.634887   0.217816   0.432697  
H24      H        0.630193   0.205996   0.435998  
H21      H        0.364097   0.249197   0.582997  
H26      H        0.345891   0.229497   0.5609    
C22      C        0.369292   0.754181   0.415325  
H22      H        0.376498   0.746899   0.406997  
C23      C        0.374655   0.771344   0.420099  
H23      H        0.385499   0.776298   0.414596  
C25      C        0.349153   0.775879   0.440223  
H25      H        0.3424     0.783201   0.448804  
C24      C        0.365122   0.782183   0.432704  
H24      H        0.369803   0.794      0.436007  
C22      C        0.63071    0.754186   0.584681  
H22      H        0.623502   0.746903   0.593002  
C23      C        0.625346   0.771345   0.5799    
H23      H        0.614503   0.776299   0.585405  
C25      C        0.650852   0.775876   0.559779  
H25      H        0.657597   0.783199   0.551202  
C24      C        0.634874   0.78218    0.567303  
H24      H        0.630207   0.794002   0.564     
C22      C        0.24582    0.584679   0.369282  
H22      H        0.2531     0.592991   0.376502  
C23      C        0.22865    0.579896   0.374652  
H23      H        0.223705   0.585401   0.385502  
C25      C        0.224113   0.559767   0.349146  
H25      H        0.216803   0.551194   0.342403  
C24      C        0.217824   0.567299   0.365117  
H24      H        0.205995   0.564002   0.369805  
C22      C        0.245829   0.415323   0.630712  
H22      H        0.253097   0.407006   0.623497  
C23      C        0.228642   0.420097   0.625351  
H23      H        0.223701   0.414594   0.614499  
C25      C        0.224127   0.440231   0.650852  
H25      H        0.2168     0.448806   0.657594  
C24      C        0.217816   0.432702   0.634878  
H24      H        0.205997   0.436007   0.630202  
C22      C        0.754184   0.584681   0.630716  
H22      H        0.746905   0.592995   0.623498  
C23      C        0.771353   0.579899   0.625352  
H23      H        0.776305   0.5854     0.614503  
C25      C        0.775884   0.559771   0.650846  
H25      H        0.783199   0.551197   0.657599  
C24      C        0.782185   0.567296   0.63488   
H24      H        0.794001   0.563999   0.630205  
C22      C        0.754183   0.415326   0.369294  
H22      H        0.746895   0.407005   0.376498  
C23      C        0.771344   0.420096   0.374649  
H23      H        0.776298   0.414595   0.385497  
C25      C        0.775874   0.440227   0.349151  
H25      H        0.783196   0.448799   0.342401  
C24      C        0.782172   0.432699   0.365121  
H24      H        0.794004   0.435999   0.369793  
C22      C        0.36929    0.415328   0.754178  
H22      H        0.376502   0.407      0.746896  
C23      C        0.374652   0.42009    0.771353  
H23      H        0.385496   0.414597   0.776297  
C25      C        0.349148   0.440229   0.775872  
H25      H        0.34241    0.448804   0.783201  
C24      C        0.365114   0.432706   0.782181  
H24      H        0.369806   0.436002   0.794006  
C22      C        0.630712   0.584686   0.754181  
H22      H        0.623495   0.592999   0.746906  
C23      C        0.625348   0.579896   0.771349  
H23      H        0.614499   0.585404   0.7763    
C25      C        0.650845   0.559772   0.775883  
H25      H        0.657602   0.551197   0.783204  
C24      C        0.634887   0.567301   0.782182  
H24      H        0.630193   0.564      0.794002  
C22      C        0.63071    0.415327   0.245822  
H22      H        0.623502   0.406996   0.253095  
C23      C        0.625346   0.420098   0.228653  
H23      H        0.614503   0.414593   0.223699  
C25      C        0.650852   0.440219   0.224122  
H25      H        0.657597   0.448796   0.216799  
C24      C        0.634874   0.432695   0.217818  
H24      H        0.630207   0.435998   0.205996  
C22      C        0.369292   0.584683   0.245826  
H22      H        0.376498   0.593001   0.253099  
C23      C        0.374655   0.579899   0.228654  
H23      H        0.385499   0.585402   0.2237    
C25      C        0.349153   0.559776   0.224119  
H25      H        0.3424     0.551194   0.216797  
C24      C        0.365122   0.567304   0.217824  
H24      H        0.369803   0.564      0.206008  
C22      C        0.754184   0.369292   0.415327  
H22      H        0.746905   0.3765     0.407003  
C23      C        0.771353   0.374646   0.420099  
H23      H        0.776305   0.385495   0.414598  
C25      C        0.775884   0.349152   0.440227  
H25      H        0.783199   0.342399   0.448801  
C24      C        0.782185   0.365119   0.432702  
H24      H        0.794001   0.369793   0.435999  
C22      C        0.754183   0.630714   0.584682  
H22      H        0.746895   0.6235     0.592993  
C23      C        0.771344   0.625349   0.579902  
H23      H        0.776298   0.614501   0.585403  
C25      C        0.775874   0.650847   0.559771  
H25      H        0.783196   0.657597   0.551199  
C24      C        0.782172   0.634877   0.567299  
H24      H        0.794004   0.630205   0.563999  
C22      C        0.24582    0.630716   0.415319  
H22      H        0.2531     0.623496   0.407007  
C23      C        0.22865    0.625346   0.420102  
H23      H        0.223705   0.614496   0.414597  
C25      C        0.224113   0.650852   0.440231  
H25      H        0.216803   0.657596   0.448804  
C24      C        0.217824   0.634881   0.432699  
H24      H        0.205995   0.630203   0.436006  
C22      C        0.245829   0.369286   0.584675  
H22      H        0.253097   0.376501   0.592992  
C23      C        0.228642   0.374647   0.579901  
H23      H        0.223701   0.385499   0.585404  
C25      C        0.224127   0.349146   0.559767  
H25      H        0.2168     0.342404   0.551192  
C24      C        0.217816   0.36512    0.567296  
H24      H        0.205997   0.369806   0.564001  
H21      H        0.416994   0.750799   0.3641    
H26      H        0.439104   0.770508   0.3459    
C22      C        0.584677   0.754183   0.630711  
H22      H        0.593002   0.7469     0.623501  
C23      C        0.579896   0.771354   0.62535   
H23      H        0.585402   0.776304   0.614505  
C25      C        0.559776   0.775882   0.650849  
H25      H        0.551203   0.783194   0.6576    
C24      C        0.567299   0.782179   0.634876  
H24      H        0.563996   0.794002   0.630202  
H21      H        0.416996   0.249198   0.635898  
H26      H        0.439092   0.229502   0.654106  
H21      H        0.583003   0.249199   0.364101  
H26      H        0.560898   0.2295     0.345901  
C22      C        0.415326   0.369285   0.245817  
H22      H        0.406997   0.376498   0.253097  
C23      C        0.420094   0.374645   0.228646  
H23      H        0.414599   0.385507   0.223699  
C25      C        0.440225   0.349147   0.224119  
H25      H        0.448801   0.342397   0.216806  
C24      C        0.432704   0.365121   0.21782   
H24      H        0.435999   0.369795   0.205998  
C22      C        0.584677   0.630715   0.245822  
H22      H        0.593003   0.623499   0.253097  
C23      C        0.579896   0.625348   0.228645  
H23      H        0.585392   0.614503   0.223704  
C25      C        0.559768   0.650854   0.224116  
H25      H        0.551196   0.657603   0.216799  
C24      C        0.5673     0.634886   0.217815  
H24      H        0.564      0.630209   0.206     
C22      C        0.415326   0.630715   0.754179  
H22      H        0.407001   0.623505   0.746896  
C23      C        0.420106   0.625355   0.77135   
H23      H        0.4146     0.614509   0.7763    
C25      C        0.440226   0.650853   0.775877  
H25      H        0.448792   0.657596   0.783197  
C24      C        0.432704   0.63488    0.782175  
H24      H        0.435999   0.630198   0.794006  
C22      C        0.584677   0.369299   0.75418   
H22      H        0.593005   0.376502   0.746898  
C23      C        0.579901   0.374649   0.771354  
H23      H        0.585395   0.385502   0.776307  
C25      C        0.559766   0.349148   0.775878  
H25      H        0.5512     0.342393   0.783201  
C24      C        0.567298   0.365117   0.782178  
H24      H        0.564      0.369804   0.794002  
C22      C        0.36929    0.754185   0.584682  
H22      H        0.376499   0.746902   0.593003  
C23      C        0.374647   0.771345   0.5799    
H23      H        0.385503   0.776304   0.5854    
C25      C        0.34915    0.775879   0.559776  
H25      H        0.342393   0.783201   0.551201  
C24      C        0.365127   0.782181   0.567302  
H24      H        0.369801   0.793998   0.564004  
C22      C        0.630712   0.754182   0.415324  
H22      H        0.623501   0.7469     0.406996  
C23      C        0.625354   0.771343   0.420099  
H23      H        0.614498   0.776293   0.414601  
C25      C        0.650854   0.775876   0.440225  
H25      H        0.657605   0.7832     0.448805  
C24      C        0.634888   0.782185   0.432702  
H24      H        0.630208   0.794004   0.436003  
C22      C        0.63071    0.245831   0.584679  
H22      H        0.623504   0.253103   0.592997  
C23      C        0.625359   0.228653   0.579901  
H23      H        0.614504   0.223704   0.585398  
C25      C        0.65085    0.224123   0.559771  
H25      H        0.657595   0.216793   0.551198  
C24      C        0.634881   0.217829   0.5673    
H24      H        0.630192   0.206004   0.564004  
C22      C        0.369292   0.245826   0.415323  
H22      H        0.376501   0.253099   0.406992  
C23      C        0.374649   0.228649   0.420102  
H23      H        0.385492   0.223695   0.414596  
C25      C        0.349154   0.224112   0.440229  
H25      H        0.342397   0.216795   0.4488    
C24      C        0.365121   0.217815   0.432699  
H24      H        0.369796   0.206      0.435994  
C22      C        0.754182   0.415323   0.630712  
H22      H        0.746894   0.407004   0.6235    
C23      C        0.771344   0.420098   0.62535   
H23      H        0.776298   0.414601   0.614492  
C25      C        0.775882   0.440227   0.650856  
H25      H        0.783203   0.448795   0.657605  
C24      C        0.782179   0.432703   0.634877  
H24      H        0.794      0.436002   0.630207  
C22      C        0.754185   0.584673   0.369288  
H22      H        0.746906   0.592996   0.376496  
C23      C        0.771353   0.579897   0.374651  
H23      H        0.776294   0.5854     0.385503  
C25      C        0.775887   0.559766   0.349147  
H25      H        0.783203   0.551196   0.3424    
C24      C        0.782187   0.5673     0.365116  
H24      H        0.794005   0.564005   0.369802  
C22      C        0.245818   0.415331   0.369288  
H22      H        0.253098   0.407007   0.376496  
C23      C        0.22865    0.420103   0.374642  
H23      H        0.223698   0.414602   0.385491  
C25      C        0.224118   0.440231   0.349148  
H25      H        0.216796   0.448797   0.342403  
C24      C        0.217829   0.4327     0.36512   
H24      H        0.205993   0.435995   0.369797  
C22      C        0.24582    0.584686   0.63071   
H22      H        0.253107   0.592997   0.623496  
C23      C        0.228651   0.579898   0.625353  
H23      H        0.223696   0.585399   0.614505  
C25      C        0.224121   0.559767   0.65085   
H25      H        0.216799   0.551195   0.657601  
C24      C        0.217822   0.567295   0.634881  
H24      H        0.205999   0.564004   0.6302    
